data_image0
_chemical_formula_structural       Sc2FeCl6
_chemical_formula_sum              "Sc2 Fe1 Cl6"
_cell_length_a       6.58399186920868
_cell_length_b       6.583991944577208
_cell_length_c       6.583991872552921
_cell_angle_alpha    59.99999965517569
_cell_angle_beta     60.00000151297351
_cell_angle_gamma    60.00000086751968

_space_group_name_H-M_alt    "P 1"
_space_group_IT_number       1

loop_
  _space_group_symop_operation_xyz
  'x, y, z'

loop_
  _atom_site_type_symbol
  _atom_site_label
  _atom_site_symmetry_multiplicity
  _atom_site_fract_x
  _atom_site_fract_y
  _atom_site_fract_z
  _atom_site_occupancy
  Sc  Sc1       1.0  0.25000000007549167  0.25000032311388953  0.24999977825371086  1.0000
  Sc  Sc2       1.0  0.7500000231176652  0.7499997378986323  0.749999577554235  1.0000
  Fe  Fe1       1.0  9.088158127413764e-09  0.9999999832583268  3.268463048805751e-08  1.0000
  Cl  Cl1       1.0  0.24047697598215273  0.24047713927022546  0.7595229966411762  1.0000
  Cl  Cl2       1.0  0.7595229703812297  0.7595228733774516  0.24047727383074405  1.0000
  Cl  Cl3       1.0  0.7595229425220534  0.24047702173828783  0.24047711804399516  1.0000
  Cl  Cl4       1.0  0.2404772282761042  0.7595229016204709  0.7595229739800149  1.0000
  Cl  Cl5       1.0  0.24047699377629556  0.7595227971679419  0.24047717922188536  1.0000
  Cl  Cl6       1.0  0.7595228529213879  0.2404772303612224  0.7595230561815337  1.0000
