data_image0
_chemical_formula_structural       Sc2FeI6
_chemical_formula_sum              "Sc2 Fe1 I6"
_cell_length_a       7.540792997103206
_cell_length_b       7.540792938772268
_cell_length_c       7.540793130133836
_cell_angle_alpha    60.000000080169364
_cell_angle_beta     60.00000047305097
_cell_angle_gamma    59.999999606592326

_space_group_name_H-M_alt    "P 1"
_space_group_IT_number       1

loop_
  _space_group_symop_operation_xyz
  'x, y, z'

loop_
  _atom_site_type_symbol
  _atom_site_label
  _atom_site_symmetry_multiplicity
  _atom_site_fract_x
  _atom_site_fract_y
  _atom_site_fract_z
  _atom_site_occupancy
  Sc  Sc1       1.0  0.2500000348733302  0.24999996643502567  0.24999996792864213  1.0000
  Sc  Sc2       1.0  0.7500001535410122  0.7500000373586168  0.7500001365242785  1.0000
  Fe  Fe1       1.0  8.85829272741768e-08  0.9999999317853105  1.8990531284749594e-08  1.0000
  I   I1        1.0  0.24172103200302555  0.24172110367061483  0.7582789224944628  1.0000
  I   I2        1.0  0.7582789211818851  0.7582789764585122  0.2417209524193646  1.0000
  I   I3        1.0  0.7582789087215724  0.24172105265770663  0.2417211117480389  1.0000
  I   I4        1.0  0.24172097461402392  0.7582789430151393  0.758278957017185  1.0000
  I   I5        1.0  0.2417210157882801  0.7582789591823378  0.24172103678540588  1.0000
  I   I6        1.0  0.7582788698057483  0.24172102512139246  0.7582789052492348  1.0000
