data_image0
_chemical_formula_structural       Sc2FeF6
_chemical_formula_sum              "Sc2 Fe1 F6"
_cell_length_a       5.275579628904317
_cell_length_b       5.27557908600845
_cell_length_c       5.275579362849051
_cell_angle_alpha    60.000000060108675
_cell_angle_beta     60.000000480028454
_cell_angle_gamma    60.000000606652456

_space_group_name_H-M_alt    "P 1"
_space_group_IT_number       1

loop_
  _space_group_symop_operation_xyz
  'x, y, z'

loop_
  _atom_site_type_symbol
  _atom_site_label
  _atom_site_symmetry_multiplicity
  _atom_site_fract_x
  _atom_site_fract_y
  _atom_site_fract_z
  _atom_site_occupancy
  Sc  Sc1       1.0  0.25000001181925  0.24999999156093214  0.24999987408343893  1.0000
  Sc  Sc2       1.0  0.7499999880104138  0.7500000907596207  0.7499998514137455  1.0000
  Fe  Fe1       1.0  0.9999999962635444  4.643072146846097e-09  0.9999999786959013  1.0000
  F   F1        1.0  0.2603155543726909  0.2603155747065701  0.7396844986683732  1.0000
  F   F2        1.0  0.7396844840164655  0.739684398501782  0.2603155900312319  1.0000
  F   F3        1.0  0.739684447716057  0.2603154855155419  0.26031567223976065  1.0000
  F   F4        1.0  0.2603155260495304  0.7396844714420537  0.7396844455238494  1.0000
  F   F5        1.0  0.26031553613549413  0.739684478102083  0.2603155762046959  1.0000
  F   F6        1.0  0.7396843926598502  0.2603155415369931  0.7396845080614529  1.0000
