data_image0
_chemical_formula_structural       Sc2GeCl6
_chemical_formula_sum              "Sc2 Ge1 Cl6"
_cell_length_a       6.897758538763306
_cell_length_b       6.897758342141332
_cell_length_c       6.897758761142363
_cell_angle_alpha    59.999999720728056
_cell_angle_beta     59.99999831251741
_cell_angle_gamma    60.00000444911719

_space_group_name_H-M_alt    "P 1"
_space_group_IT_number       1

loop_
  _space_group_symop_operation_xyz
  'x, y, z'

loop_
  _atom_site_type_symbol
  _atom_site_label
  _atom_site_symmetry_multiplicity
  _atom_site_fract_x
  _atom_site_fract_y
  _atom_site_fract_z
  _atom_site_occupancy
  Sc  Sc1       1.0  0.24999954946746167  0.2500001970088599  0.25000049556039633  1.0000
  Sc  Sc2       1.0  0.750000103865437  0.7499999962108923  0.749999599362496  1.0000
  Ge  Ge1       1.0  0.9999999713385204  1.0653412747336154e-08  0.9999999263684967  1.0000
  Cl  Cl1       1.0  0.24945662796710968  0.249456711494549  0.7505432843529308  1.0000
  Cl  Cl2       1.0  0.750543552079664  0.7505431621227493  0.24945684329039303  1.0000
  Cl  Cl3       1.0  0.750543230897506  0.24945656587988818  0.249456775469406  1.0000
  Cl  Cl4       1.0  0.24945694025698306  0.7505431887742576  0.7505432711270086  1.0000
  Cl  Cl5       1.0  0.24945653247439284  0.7505433819608748  0.24945685747111548  1.0000
  Cl  Cl6       1.0  0.7505434850179594  0.24945679350320268  0.7505429236244977  1.0000
