data_image0
_chemical_formula_structural       Sc2GaCl6
_chemical_formula_sum              "Sc2 Ga1 Cl6"
_cell_length_a       6.813321490029655
_cell_length_b       6.8133214910776
_cell_length_c       6.813321162941652
_cell_angle_alpha    59.99999966664228
_cell_angle_beta     59.999997787751866
_cell_angle_gamma    59.999998869982875

_space_group_name_H-M_alt    "P 1"
_space_group_IT_number       1

loop_
  _space_group_symop_operation_xyz
  'x, y, z'

loop_
  _atom_site_type_symbol
  _atom_site_label
  _atom_site_symmetry_multiplicity
  _atom_site_fract_x
  _atom_site_fract_y
  _atom_site_fract_z
  _atom_site_occupancy
  Sc  Sc1       1.0  0.24999988939776796  0.25000012020689644  0.25000003699935625  1.0000
  Sc  Sc2       1.0  0.7500000183790191  0.7500002455759555  0.7500003897100779  1.0000
  Ga  Ga1       1.0  0.9999999620629788  9.347384257143253e-08  0.9999999032490784  1.0000
  Cl  Cl1       1.0  0.24841826805110423  0.24841821371401915  0.7515816892255217  1.0000
  Cl  Cl2       1.0  0.7515818444082533  0.7515816092015258  0.24841804062561648  1.0000
  Cl  Cl3       1.0  0.7515817638245226  0.24841825892623629  0.24841820586931937  1.0000
  Cl  Cl4       1.0  0.2484180608793843  0.7515818120545045  0.7515817727901778  1.0000
  Cl  Cl5       1.0  0.24841835754050928  0.7515816306675319  0.24841815394503017  1.0000
  Cl  Cl6       1.0  0.7515818436490436  0.24841801249062298  0.7515818224963857  1.0000
