data_image0
_chemical_formula_structural       Sc2GeF6
_chemical_formula_sum              "Sc2 Ge1 F6"
_cell_length_a       5.563755844320592
_cell_length_b       5.563753912713476
_cell_length_c       5.563753855156832
_cell_angle_alpha    59.999998477346296
_cell_angle_beta     59.99999977927652
_cell_angle_gamma    60.00000344947354

_space_group_name_H-M_alt    "P 1"
_space_group_IT_number       1

loop_
  _space_group_symop_operation_xyz
  'x, y, z'

loop_
  _atom_site_type_symbol
  _atom_site_label
  _atom_site_symmetry_multiplicity
  _atom_site_fract_x
  _atom_site_fract_y
  _atom_site_fract_z
  _atom_site_occupancy
  Sc  Sc1       1.0  0.24999899852244126  0.2500002681147332  0.2499995176459547  1.0000
  Sc  Sc2       1.0  0.7500012786090867  0.7499977863730746  0.750006860409483  1.0000
  Ge  Ge1       1.0  0.9999999527336673  0.9999996125725364  1.1310074333422035e-07  1.0000
  F   F1        1.0  0.2602151500090504  0.2602165035289996  0.739784139552452  1.0000
  F   F2        1.0  0.7397840360962994  0.7397838403025426  0.2602135081434382  1.0000
  F   F3        1.0  0.7397844038950556  0.26021748093748637  0.2602138972321766  1.0000
  F   F4        1.0  0.2602147084844968  0.7397838997027664  0.7397839375355807  1.0000
  F   F5        1.0  0.2602170595193906  0.7397847355069256  0.26021460631467364  1.0000
  F   F6        1.0  0.7397844734178514  0.2602157404024612  0.7397833170902144  1.0000
