data_image0
_chemical_formula_structural       Sc2GaF6
_chemical_formula_sum              "Sc2 Ga1 F6"
_cell_length_a       5.511098569051364
_cell_length_b       5.511098601738621
_cell_length_c       5.511098059995588
_cell_angle_alpha    60.0000012023848
_cell_angle_beta     60.00000036251557
_cell_angle_gamma    59.9999994556546

_space_group_name_H-M_alt    "P 1"
_space_group_IT_number       1

loop_
  _space_group_symop_operation_xyz
  'x, y, z'

loop_
  _atom_site_type_symbol
  _atom_site_label
  _atom_site_symmetry_multiplicity
  _atom_site_fract_x
  _atom_site_fract_y
  _atom_site_fract_z
  _atom_site_occupancy
  Sc  Sc1       1.0  0.2500000930493412  0.24999997389127562  0.2500001281348436  1.0000
  Sc  Sc2       1.0  0.7499999334392274  0.7499997016637225  0.7500005964976948  1.0000
  Ga  Ga1       1.0  0.9999999728673323  3.111254121802368e-08  1.6391041503260363e-09  1.0000
  F   F1        1.0  0.24773569977539675  0.24773594113301955  0.7522640146188194  1.0000
  F   F2        1.0  0.7522642492040965  0.7522641366626996  0.24773554058905506  1.0000
  F   F3        1.0  0.7522639560782367  0.24773601697170716  0.24773571507487985  1.0000
  F   F4        1.0  0.24773587616037765  0.7522641030481713  0.7522642656987272  1.0000
  F   F5        1.0  0.24773605836438123  0.7522640940789278  0.24773560424371377  1.0000
  F   F6        1.0  0.7522641646650052  0.24773607927672978  0.7522641163616801  1.0000
