data_image0
_chemical_formula_structural       Sc2GaBr6
_chemical_formula_sum              "Sc2 Ga1 Br6"
_cell_length_a       7.105436740703624
_cell_length_b       7.105436782919225
_cell_length_c       7.105436628485757
_cell_angle_alpha    60.00000282659558
_cell_angle_beta     60.00000298041959
_cell_angle_gamma    60.00000138875985

_space_group_name_H-M_alt    "P 1"
_space_group_IT_number       1

loop_
  _space_group_symop_operation_xyz
  'x, y, z'

loop_
  _atom_site_type_symbol
  _atom_site_label
  _atom_site_symmetry_multiplicity
  _atom_site_fract_x
  _atom_site_fract_y
  _atom_site_fract_z
  _atom_site_occupancy
  Sc  Sc1       1.0  0.24999983817353758  0.2500000747476263  0.25000007267902014  1.0000
  Sc  Sc2       1.0  0.7499999816325567  0.7499999880996975  0.7500001391443835  1.0000
  Ga  Ga1       1.0  3.3256688836577686e-08  1.7236728745561448e-08  1.5567110472031386e-08  1.0000
  Br  Br1       1.0  0.25140833843111426  0.2514082882753842  0.7485916814608637  1.0000
  Br  Br2       1.0  0.7485916632898663  0.748591609099342  0.2514082899248433  1.0000
  Br  Br3       1.0  0.7485916703983996  0.25140838284968037  0.2514082873784495  1.0000
  Br  Br4       1.0  0.25140833131967877  0.7485916851686575  0.7485916310564855  1.0000
  Br  Br5       1.0  0.2514084146644284  0.7485916175790327  0.2514082867126808  1.0000
  Br  Br6       1.0  0.7485917317547003  0.25140833322955075  0.7485915912365193  1.0000
