data_image0
_chemical_formula_structural       Sc2GaCl6
_chemical_formula_sum              "Sc2 Ga1 Cl6"
_cell_length_a       6.813320747777116
_cell_length_b       6.813320567474766
_cell_length_c       6.813320367808385
_cell_angle_alpha    59.999998997729584
_cell_angle_beta     59.99999934816838
_cell_angle_gamma    59.999999033587784

_space_group_name_H-M_alt    "P 1"
_space_group_IT_number       1

loop_
  _space_group_symop_operation_xyz
  'x, y, z'

loop_
  _atom_site_type_symbol
  _atom_site_label
  _atom_site_symmetry_multiplicity
  _atom_site_fract_x
  _atom_site_fract_y
  _atom_site_fract_z
  _atom_site_occupancy
  Sc  Sc1       1.0  0.2499999465786673  0.24999995994209104  0.24999982197043355  1.0000
  Sc  Sc2       1.0  0.7499999885788371  0.7500002213653523  0.7499998400952913  1.0000
  Ga  Ga1       1.0  0.9999999673881679  2.1570890216379377e-08  0.9999999644245027  1.0000
  Cl  Cl1       1.0  0.24841830592206732  0.24841829315963235  0.7515817144075969  1.0000
  Cl  Cl2       1.0  0.7515817068894214  0.7515817263661341  0.24841833169914274  1.0000
  Cl  Cl3       1.0  0.7515816915687011  0.24841825552754723  0.2484182869892358  1.0000
  Cl  Cl4       1.0  0.24841823362881932  0.7515817370346066  0.7515818310834277  1.0000
  Cl  Cl5       1.0  0.2484182492403806  0.751581682416601  0.24841835834905573  1.0000
  Cl  Cl6       1.0  0.7515819087603628  0.24841809982937713  0.751581845349152  1.0000
