data_image0
_chemical_formula_structural       Sc2GaBr6
_chemical_formula_sum              "Sc2 Ga1 Br6"
_cell_length_a       7.105436783793324
_cell_length_b       7.105436652133399
_cell_length_c       7.105436533801582
_cell_angle_alpha    60.000001127463364
_cell_angle_beta     60.00000127793764
_cell_angle_gamma    60.00000154293656

_space_group_name_H-M_alt    "P 1"
_space_group_IT_number       1

loop_
  _space_group_symop_operation_xyz
  'x, y, z'

loop_
  _atom_site_type_symbol
  _atom_site_label
  _atom_site_symmetry_multiplicity
  _atom_site_fract_x
  _atom_site_fract_y
  _atom_site_fract_z
  _atom_site_occupancy
  Sc  Sc1       1.0  0.2499999286697622  0.25000009885387403  0.2500000372373129  1.0000
  Sc  Sc2       1.0  0.7499999338479353  0.7500000431817074  0.7499999561913571  1.0000
  Ga  Ga1       1.0  2.821807485003685e-08  0.9999999689738883  1.4070375892182222e-08  1.0000
  Br  Br1       1.0  0.2514083374808466  0.25140832716464656  0.7485916459365098  1.0000
  Br  Br2       1.0  0.7485917044732666  0.7485916373326289  0.2514083437283584  1.0000
  Br  Br3       1.0  0.7485916852588625  0.2514082817063805  0.25140837502867924  1.0000
  Br  Br4       1.0  0.25140835766412206  0.7485916603831475  0.7485916563178344  1.0000
  Br  Br5       1.0  0.25140832904976596  0.7485916470058285  0.25140832718529954  1.0000
  Br  Br6       1.0  0.7485916914823851  0.2514083330045026  0.7485916358791875  1.0000
