data_image0
_chemical_formula_structural       Sc2GaI6
_chemical_formula_sum              "Sc2 Ga1 I6"
_cell_length_a       7.7283715171682505
_cell_length_b       7.728371491774867
_cell_length_c       7.72837149953473
_cell_angle_alpha    60.00000055438026
_cell_angle_beta     60.00000055036589
_cell_angle_gamma    59.99999966472423

_space_group_name_H-M_alt    "P 1"
_space_group_IT_number       1

loop_
  _space_group_symop_operation_xyz
  'x, y, z'

loop_
  _atom_site_type_symbol
  _atom_site_label
  _atom_site_symmetry_multiplicity
  _atom_site_fract_x
  _atom_site_fract_y
  _atom_site_fract_z
  _atom_site_occupancy
  Sc  Sc1       1.0  0.2500000905977093  0.24999992308327249  0.2499999848455704  1.0000
  Sc  Sc2       1.0  0.7499999562750999  0.7500000703501555  0.7499999863302959  1.0000
  Ga  Ga1       1.0  4.301052283235058e-09  9.508431856038716e-09  4.2264736968541045e-08  1.0000
  I   I1        1.0  0.25327324458857536  0.25327320150271143  0.7467267738725369  1.0000
  I   I2        1.0  0.7467267262660994  0.7467267824222855  0.25327327241495307  1.0000
  I   I3        1.0  0.7467267618349727  0.2532732457936888  0.2532732116042909  1.0000
  I   I4        1.0  0.2532732645579676  0.7467267508092164  0.7467267501117001  1.0000
  I   I5        1.0  0.25327323063949675  0.7467267737635768  0.2532732369282008  1.0000
  I   I6        1.0  0.7467267206856182  0.2532732418561922  0.7467267463436023  1.0000
