data_image0
_chemical_formula_structural       Sc2GeI6
_chemical_formula_sum              "Sc2 Ge1 I6"
_cell_length_a       7.790220259244229
_cell_length_b       7.790220041458299
_cell_length_c       7.7902201764181935
_cell_angle_alpha    59.99999959251789
_cell_angle_beta     60.00000011295979
_cell_angle_gamma    59.99999960813519

_space_group_name_H-M_alt    "P 1"
_space_group_IT_number       1

loop_
  _space_group_symop_operation_xyz
  'x, y, z'

loop_
  _atom_site_type_symbol
  _atom_site_label
  _atom_site_symmetry_multiplicity
  _atom_site_fract_x
  _atom_site_fract_y
  _atom_site_fract_z
  _atom_site_occupancy
  Sc  Sc1       1.0  0.25000001142609446  0.2500000421191519  0.24999993609290688  1.0000
  Sc  Sc2       1.0  0.7499999712637554  0.7499999329821474  0.7500000430174821  1.0000
  Ge  Ge1       1.0  2.3551500691733113e-08  0.9999999827062732  0.9999999827508446  1.0000
  I   I1        1.0  0.2593844259572541  0.2593845441069796  0.7406155114332967  1.0000
  I   I2        1.0  0.7406155458174101  0.7406154592931453  0.25938447182188  1.0000
  I   I3        1.0  0.7406155239236307  0.2593845008113417  0.25938445150510586  1.0000
  I   I4        1.0  0.25938451323415823  0.7406155198825102  0.7406155507437009  1.0000
  I   I5        1.0  0.25938446695637024  0.74061554212731  0.2593844967438203  1.0000
  I   I6        1.0  0.7406155237278098  0.2593844801386989  0.7406155523452671  1.0000
