data_image0
_chemical_formula_structural       Sc2GaI6
_chemical_formula_sum              "Sc2 Ga1 I6"
_cell_length_a       7.7283715872401535
_cell_length_b       7.7283714786813675
_cell_length_c       7.72837151677706
_cell_angle_alpha    59.99999981734678
_cell_angle_beta     59.99999989065748
_cell_angle_gamma    59.999999428863326

_space_group_name_H-M_alt    "P 1"
_space_group_IT_number       1

loop_
  _space_group_symop_operation_xyz
  'x, y, z'

loop_
  _atom_site_type_symbol
  _atom_site_label
  _atom_site_symmetry_multiplicity
  _atom_site_fract_x
  _atom_site_fract_y
  _atom_site_fract_z
  _atom_site_occupancy
  Sc  Sc1       1.0  0.2500000561594392  0.25000001825046503  0.2499999647779814  1.0000
  Sc  Sc2       1.0  0.7499999442873535  0.7500000325650551  0.7500000369316018  1.0000
  Ga  Ga1       1.0  3.3323492882932855e-08  0.9999999762289207  3.7923603738998545e-08  1.0000
  I   I1        1.0  0.2532732623028897  0.25327320303210626  0.7467267785708344  1.0000
  I   I2        1.0  0.7467267184046467  0.7467267859786078  0.2532732677925812  1.0000
  I   I3        1.0  0.7467267600594524  0.253273250548242  0.2532732216818646  1.0000
  I   I4        1.0  0.253273268293757  0.746726721030347  0.7467267345266245  1.0000
  I   I5        1.0  0.25327324127722783  0.7467267409752829  0.25327323473105307  1.0000
  I   I6        1.0  0.7467267140149584  0.25327327497598756  0.7467267228822706  1.0000
