data_image0
_chemical_formula_structural       Sc2HfCl6
_chemical_formula_sum              "Sc2 Hf1 Cl6"
_cell_length_a       7.06852127508219
_cell_length_b       7.068521174318608
_cell_length_c       7.068520575674418
_cell_angle_alpha    59.99999731757346
_cell_angle_beta     59.99999942263146
_cell_angle_gamma    59.999998188185124

_space_group_name_H-M_alt    "P 1"
_space_group_IT_number       1

loop_
  _space_group_symop_operation_xyz
  'x, y, z'

loop_
  _atom_site_type_symbol
  _atom_site_label
  _atom_site_symmetry_multiplicity
  _atom_site_fract_x
  _atom_site_fract_y
  _atom_site_fract_z
  _atom_site_occupancy
  Sc  Sc1       1.0  0.24999978578395265  0.2500001479206166  0.25000054350906825  1.0000
  Sc  Sc2       1.0  0.7500000898395676  0.7499994959887767  0.7499998551733343  1.0000
  Hf  Hf1       1.0  4.4701261665921155e-08  0.9999999688118545  0.9999999408986837  1.0000
  Cl  Cl1       1.0  0.24853258879762563  0.2485327598735971  0.7514672422514881  1.0000
  Cl  Cl2       1.0  0.7514674488389843  0.7514673830461656  0.2485327608418925  1.0000
  Cl  Cl3       1.0  0.7514671594242913  0.2485327364042694  0.2485326616993792  1.0000
  Cl  Cl4       1.0  0.24853289890532615  0.7514673493372269  0.7514672606060089  1.0000
  Cl  Cl5       1.0  0.24853263439514278  0.7514673143749808  0.24853262901978948  1.0000
  Cl  Cl6       1.0  0.7514673780610993  0.2485328354754945  0.751467111571566  1.0000
