data_image0
_chemical_formula_structural       Sc2HfBr6
_chemical_formula_sum              "Sc2 Hf1 Br6"
_cell_length_a       7.318387718827767
_cell_length_b       7.318387808344334
_cell_length_c       7.318387874945612
_cell_angle_alpha    59.99999852672741
_cell_angle_beta     59.99999927237721
_cell_angle_gamma    59.99999977384673

_space_group_name_H-M_alt    "P 1"
_space_group_IT_number       1

loop_
  _space_group_symop_operation_xyz
  'x, y, z'

loop_
  _atom_site_type_symbol
  _atom_site_label
  _atom_site_symmetry_multiplicity
  _atom_site_fract_x
  _atom_site_fract_y
  _atom_site_fract_z
  _atom_site_occupancy
  Sc  Sc1       1.0  0.2499999111131783  0.25000006875405545  0.2499999712620685  1.0000
  Sc  Sc2       1.0  0.7499999733004274  0.749999812985592  0.7500001079562689  1.0000
  Hf  Hf1       1.0  6.636361624012055e-08  0.9999999949794474  3.764952586934565e-08  1.0000
  Br  Br1       1.0  0.25064207576672726  0.2506421137743407  0.7493579091237339  1.0000
  Br  Br2       1.0  0.7493578990740486  0.7493578800909686  0.25064208931450394  1.0000
  Br  Br3       1.0  0.7493579640391238  0.2506421412508951  0.25064205005722706  1.0000
  Br  Br4       1.0  0.25064217729996496  0.7493578643290364  0.7493578606409641  1.0000
  Br  Br5       1.0  0.2506421036229987  0.7493579294880394  0.2506421050404522  1.0000
  Br  Br6       1.0  0.7493578409823344  0.25064218821755224  0.7493578834887359  1.0000
