data_image0
_chemical_formula_structural       Sc2HfF6
_chemical_formula_sum              "Sc2 Hf1 F6"
_cell_length_a       5.684961649611944
_cell_length_b       5.684960786218664
_cell_length_c       5.684961697028478
_cell_angle_alpha    59.999997055788945
_cell_angle_beta     59.99999867739534
_cell_angle_gamma    59.99999296285959

_space_group_name_H-M_alt    "P 1"
_space_group_IT_number       1

loop_
  _space_group_symop_operation_xyz
  'x, y, z'

loop_
  _atom_site_type_symbol
  _atom_site_label
  _atom_site_symmetry_multiplicity
  _atom_site_fract_x
  _atom_site_fract_y
  _atom_site_fract_z
  _atom_site_occupancy
  Sc  Sc1       1.0  0.2500002589492386  0.24999952258909422  0.24999964934117566  1.0000
  Sc  Sc2       1.0  0.750001001047635  0.7500001253692378  0.7499987009264258  1.0000
  Hf  Hf1       1.0  0.9999999950752279  4.524155067977568e-08  0.9999999903957724  1.0000
  F   F1        1.0  0.2563837904145291  0.256384046821238  0.7436163465360159  1.0000
  F   F2        1.0  0.7436158769461994  0.7436161806599284  0.25638475304743785  1.0000
  F   F3        1.0  0.743615874613329  0.2563835174319454  0.2563843821242396  1.0000
  F   F4        1.0  0.2563835984402261  0.7436163545798639  0.7436156765954262  1.0000
  F   F5        1.0  0.25638342160821265  0.7436164861382397  0.25638460822106046  1.0000
  F   F6        1.0  0.743616193889695  0.2563835496049079  0.7436158972389014  1.0000
