data_image0
_chemical_formula_structural       Sc2HfI6
_chemical_formula_sum              "Sc2 Hf1 I6"
_cell_length_a       7.96323603766799
_cell_length_b       7.963235739928205
_cell_length_c       7.963235952685997
_cell_angle_alpha    60.00000077240359
_cell_angle_beta     59.999999778535745
_cell_angle_gamma    60.00000273231426

_space_group_name_H-M_alt    "P 1"
_space_group_IT_number       1

loop_
  _space_group_symop_operation_xyz
  'x, y, z'

loop_
  _atom_site_type_symbol
  _atom_site_label
  _atom_site_symmetry_multiplicity
  _atom_site_fract_x
  _atom_site_fract_y
  _atom_site_fract_z
  _atom_site_occupancy
  Sc  Sc1       1.0  0.2500000681217877  0.24999997065251814  0.25000000697551705  1.0000
  Sc  Sc2       1.0  0.7499999611532858  0.7499999673255074  0.7499999955503793  1.0000
  Hf  Hf1       1.0  0.9999999829513652  0.9999999815440136  1.1821398267251735e-07  1.0000
  I   I1        1.0  0.2515542117440317  0.2515541891393277  0.7484457799294089  1.0000
  I   I2        1.0  0.7484457955894429  0.7484457842126727  0.2515541669052349  1.0000
  I   I3        1.0  0.7484457908207995  0.2515542454440923  0.25155420112666066  1.0000
  I   I4        1.0  0.25155419521438727  0.7484458309538414  0.748445781436187  1.0000
  I   I5        1.0  0.251554209089306  0.7484457805579512  0.25155419513918664  1.0000
  I   I6        1.0  0.7484457816629283  0.2515542512380108  0.7484457546237445  1.0000
