data_image0
_chemical_formula_structural       Sc2IrBr6
_chemical_formula_sum              "Sc2 Ir1 Br6"
_cell_length_a       7.059455138158096
_cell_length_b       7.0594549908464375
_cell_length_c       7.059454878087536
_cell_angle_alpha    59.99999810077626
_cell_angle_beta     60.00000055517645
_cell_angle_gamma    59.99999923970052

_space_group_name_H-M_alt    "P 1"
_space_group_IT_number       1

loop_
  _space_group_symop_operation_xyz
  'x, y, z'

loop_
  _atom_site_type_symbol
  _atom_site_label
  _atom_site_symmetry_multiplicity
  _atom_site_fract_x
  _atom_site_fract_y
  _atom_site_fract_z
  _atom_site_occupancy
  Sc  Sc1       1.0  0.24999991631964175  0.2499999727112993  0.2500000441136171  1.0000
  Sc  Sc2       1.0  0.7500001052053232  0.7499999927346043  0.7499998630887771  1.0000
  Ir  Ir1       1.0  7.517900214825104e-09  0.9999999774462991  7.517900741563202e-09  1.0000
  Br  Br1       1.0  0.24536612409471287  0.24536614096897133  0.7546338860882891  1.0000
  Br  Br2       1.0  0.7546338617259437  0.754633838356129  0.24536617934681773  1.0000
  Br  Br3       1.0  0.7546338786724152  0.24536613601016957  0.24536616644661255  1.0000
  Br  Br4       1.0  0.24536611826628732  0.7546339179156352  0.7546338164659984  1.0000
  Br  Br5       1.0  0.24536609685574715  0.7546338942209004  0.24536618845834893  1.0000
  Br  Br6       1.0  0.7546338950937205  0.2453661354163023  0.7546338459232204  1.0000
