data_image0
_chemical_formula_structural       Sc2IrCl6
_chemical_formula_sum              "Sc2 Ir1 Cl6"
_cell_length_a       6.801723010365299
_cell_length_b       6.801722817975403
_cell_length_c       6.8017228166787405
_cell_angle_alpha    59.999999318028934
_cell_angle_beta     60.00000003740063
_cell_angle_gamma    60.00000261633715

_space_group_name_H-M_alt    "P 1"
_space_group_IT_number       1

loop_
  _space_group_symop_operation_xyz
  'x, y, z'

loop_
  _atom_site_type_symbol
  _atom_site_label
  _atom_site_symmetry_multiplicity
  _atom_site_fract_x
  _atom_site_fract_y
  _atom_site_fract_z
  _atom_site_occupancy
  Sc  Sc1       1.0  0.24999968835072295  0.2499999915521253  0.2500001587534363  1.0000
  Sc  Sc2       1.0  0.7500002200957356  0.7499999116340507  0.7499994994764663  1.0000
  Ir  Ir1       1.0  0.9999999815317125  0.9999999891961638  7.638512342734452e-08  1.0000
  Cl  Cl1       1.0  0.24406062037407342  0.2440606149598082  0.7559393989961533  1.0000
  Cl  Cl2       1.0  0.7559393296546748  0.7559393926634402  0.24406076989971948  1.0000
  Cl  Cl3       1.0  0.7559394667721557  0.24406062331674577  0.24406062937829806  1.0000
  Cl  Cl4       1.0  0.24406065772120147  0.7559393753033137  0.7559393920973706  1.0000
  Cl  Cl5       1.0  0.24406053710967263  0.7559393793481767  0.24406078319031138  1.0000
  Cl  Cl6       1.0  0.7559395013502926  0.24406070930383914  0.755939278922332  1.0000
