data_image0
_chemical_formula_structural       Sc2IrI6
_chemical_formula_sum              "Sc2 Ir1 I6"
_cell_length_a       7.624687633655798
_cell_length_b       7.624687628150161
_cell_length_c       7.624687709240717
_cell_angle_alpha    59.99999976054397
_cell_angle_beta     59.99999938885621
_cell_angle_gamma    59.999998489623366

_space_group_name_H-M_alt    "P 1"
_space_group_IT_number       1

loop_
  _space_group_symop_operation_xyz
  'x, y, z'

loop_
  _atom_site_type_symbol
  _atom_site_label
  _atom_site_symmetry_multiplicity
  _atom_site_fract_x
  _atom_site_fract_y
  _atom_site_fract_z
  _atom_site_occupancy
  Sc  Sc1       1.0  0.25000000316783  0.25000012861358234  0.24999991613061798  1.0000
  Sc  Sc2       1.0  0.7500000217949649  0.7499999264422081  0.7500000585063079  1.0000
  Ir  Ir1       1.0  0.9999999996640628  0.9999999646616509  3.751007999082075e-08  1.0000
  I   I1        1.0  0.24669452048636314  0.24669461117347907  0.7533054365741639  1.0000
  I   I2        1.0  0.7533054421252379  0.7533054310320036  0.246694545498343  1.0000
  I   I3        1.0  0.753305427010748  0.24669459360900134  0.24669455167240897  1.0000
  I   I4        1.0  0.2466945941752226  0.7533053682820505  0.7533054425816577  1.0000
  I   I5        1.0  0.24669459217698045  0.7533053831574902  0.24669457582958626  1.0000
  I   I6        1.0  0.7533053989803554  0.24669459158387097  0.7533054322597594  1.0000
