data_image0
_chemical_formula_structural       Sc2IrBr6
_chemical_formula_sum              "Sc2 Ir1 Br6"
_cell_length_a       7.05927475874879
_cell_length_b       7.059274671908408
_cell_length_c       7.0592745546056594
_cell_angle_alpha    59.99999918019703
_cell_angle_beta     59.99999998123269
_cell_angle_gamma    60.00000114954532

_space_group_name_H-M_alt    "P 1"
_space_group_IT_number       1

loop_
  _space_group_symop_operation_xyz
  'x, y, z'

loop_
  _atom_site_type_symbol
  _atom_site_label
  _atom_site_symmetry_multiplicity
  _atom_site_fract_x
  _atom_site_fract_y
  _atom_site_fract_z
  _atom_site_occupancy
  Sc  Sc1       1.0  0.24999984372150827  0.24999995182502133  0.2500000995950614  1.0000
  Sc  Sc2       1.0  0.7500000199956439  0.7499999543669029  0.7499999397611974  1.0000
  Ir  Ir1       1.0  1.4225375307014112e-08  2.602416548910199e-08  0.9999999940409908  1.0000
  Br  Br1       1.0  0.2453705572321441  0.24537052611916263  0.7546294618230907  1.0000
  Br  Br2       1.0  0.7546294669160358  0.754629487639314  0.24537052994552117  1.0000
  Br  Br3       1.0  0.7546294906947755  0.24537052371474796  0.2453705874792224  1.0000
  Br  Br4       1.0  0.24537055731168422  0.754629496983506  0.7546294271379169  1.0000
  Br  Br5       1.0  0.2453705544589389  0.7546294665788307  0.24537053448472032  1.0000
  Br  Br6       1.0  0.7546294878635965  0.24537056626403447  0.7546294301550625  1.0000
