data_image0
_chemical_formula_structural       Sc2IrI6
_chemical_formula_sum              "Sc2 Ir1 I6"
_cell_length_a       7.626795150487187
_cell_length_b       7.626795172157618
_cell_length_c       7.626795006705401
_cell_angle_alpha    60.00000064069089
_cell_angle_beta     59.9999995072894
_cell_angle_gamma    59.999999938582874

_space_group_name_H-M_alt    "P 1"
_space_group_IT_number       1

loop_
  _space_group_symop_operation_xyz
  'x, y, z'

loop_
  _atom_site_type_symbol
  _atom_site_label
  _atom_site_symmetry_multiplicity
  _atom_site_fract_x
  _atom_site_fract_y
  _atom_site_fract_z
  _atom_site_occupancy
  Sc  Sc1       1.0  0.25000002203016164  0.25000002539462246  0.2499999486813271  1.0000
  Sc  Sc2       1.0  0.7499999534297016  0.7499999236286211  0.7500000284763336  1.0000
  Ir  Ir1       1.0  4.505278917815511e-08  1.927013613764913e-08  0.999999931125868  1.0000
  I   I1        1.0  0.24667113863682869  0.246671138310629  0.7533288741565847  1.0000
  I   I2        1.0  0.7533288311028583  0.7533288460411984  0.2466711983348789  1.0000
  I   I3        1.0  0.7533288508842454  0.24667117561807297  0.24667112782796763  1.0000
  I   I4        1.0  0.24667112451258816  0.7533288826026106  0.7533288786771597  1.0000
  I   I5        1.0  0.24667118976296148  0.7533288311259955  0.2466711464151182  1.0000
  I   I6        1.0  0.753328841959088  0.24667115804336567  0.7533288677642286  1.0000
