data_image0
_chemical_formula_structural       Sc2MnI6
_chemical_formula_sum              "Sc2 Mn1 I6"
_cell_length_a       7.652395307883554
_cell_length_b       7.652395275515304
_cell_length_c       7.652395384434023
_cell_angle_alpha    59.999999175156965
_cell_angle_beta     59.99999950223899
_cell_angle_gamma    60.00000052735325

_space_group_name_H-M_alt    "P 1"
_space_group_IT_number       1

loop_
  _space_group_symop_operation_xyz
  'x, y, z'

loop_
  _atom_site_type_symbol
  _atom_site_label
  _atom_site_symmetry_multiplicity
  _atom_site_fract_x
  _atom_site_fract_y
  _atom_site_fract_z
  _atom_site_occupancy
  Sc  Sc1       1.0  0.25000006421961474  0.24999988351645908  0.25000001832424945  1.0000
  Sc  Sc2       1.0  0.7499999987768777  0.7500000058542862  0.7500000918715088  1.0000
  Mn  Mn1       1.0  0.9999999933549208  0.9999999791938565  0.9999999875900042  1.0000
  I   I1        1.0  0.25078422574266535  0.25078426544181687  0.7492157463072431  1.0000
  I   I2        1.0  0.7492157302837549  0.7492157999809107  0.2507842025898646  1.0000
  I   I3        1.0  0.7492157525218834  0.25078426445656815  0.2507842216778163  1.0000
  I   I4        1.0  0.250784235207981  0.7492157737581261  0.749215764174997  1.0000
  I   I5        1.0  0.2507842546425348  0.749215799451239  0.25078420764226095  1.0000
  I   I6        1.0  0.7492157494267765  0.2507842259596749  0.7492157594545744  1.0000
