data_image0
_chemical_formula_structural       Sc2MoBr6
_chemical_formula_sum              "Sc2 Mo1 Br6"
_cell_length_a       7.085328366804027
_cell_length_b       7.085328187005896
_cell_length_c       7.085328198202142
_cell_angle_alpha    59.99999880283069
_cell_angle_beta     59.99999996554369
_cell_angle_gamma    60.00000148658882

_space_group_name_H-M_alt    "P 1"
_space_group_IT_number       1

loop_
  _space_group_symop_operation_xyz
  'x, y, z'

loop_
  _atom_site_type_symbol
  _atom_site_label
  _atom_site_symmetry_multiplicity
  _atom_site_fract_x
  _atom_site_fract_y
  _atom_site_fract_z
  _atom_site_occupancy
  Sc  Sc1       1.0  0.24999987246387764  0.24999976373510369  0.2500002206529166  1.0000
  Sc  Sc2       1.0  0.7499999857755556  0.7499999999168844  0.7500000669563043  1.0000
  Mo  Mo1       1.0  1.9324838826693007e-08  6.914259173055604e-08  0.9999999825822613  1.0000
  Br  Br1       1.0  0.25390253766269977  0.2539023914837062  0.746097516382019  1.0000
  Br  Br2       1.0  0.74609756463436  0.7460975640389819  0.2539023895444373  1.0000
  Br  Br3       1.0  0.7460975352739094  0.2539025081789073  0.2539024076578323  1.0000
  Br  Br4       1.0  0.25390243896544146  0.7460975821718303  0.7460974821811482  1.0000
  Br  Br5       1.0  0.25390244267164486  0.746097578389008  0.2539025023334313  1.0000
  Br  Br6       1.0  0.7460976039328744  0.25390253443307303  0.7460974346488969  1.0000
