data_image0
_chemical_formula_structural       Sc2MoCl6
_chemical_formula_sum              "Sc2 Mo1 Cl6"
_cell_length_a       6.734857875788628
_cell_length_b       6.734858361822908
_cell_length_c       6.734858111423781
_cell_angle_alpha    60.0000036696365
_cell_angle_beta     60.000000521020766
_cell_angle_gamma    60.00000160730941

_space_group_name_H-M_alt    "P 1"
_space_group_IT_number       1

loop_
  _space_group_symop_operation_xyz
  'x, y, z'

loop_
  _atom_site_type_symbol
  _atom_site_label
  _atom_site_symmetry_multiplicity
  _atom_site_fract_x
  _atom_site_fract_y
  _atom_site_fract_z
  _atom_site_occupancy
  Sc  Sc1       1.0  0.24999996419168385  0.24999960499744028  0.2500002030354723  1.0000
  Sc  Sc2       1.0  0.7499997304859773  0.7500002425274421  0.7500000847747139  1.0000
  Mo  Mo1       1.0  4.7902378077752565e-08  5.455547364644454e-09  0.9999999718362257  1.0000
  Cl  Cl1       1.0  0.252945826955057  0.2529457189333888  0.7470541872027704  1.0000
  Cl  Cl2       1.0  0.7470542657808636  0.7470543231727038  0.25294567362420944  1.0000
  Cl  Cl3       1.0  0.7470543339779674  0.2529457597761408  0.25294569768565356  1.0000
  Cl  Cl4       1.0  0.2529457990059435  0.7470542696003395  0.7470541865024446  1.0000
  Cl  Cl5       1.0  0.2529457522657842  0.7470543281718659  0.252945710156566  1.0000
  Cl  Cl6       1.0  0.7470542873885321  0.25294577030822846  0.7470542633547609  1.0000
