data_image0
_chemical_formula_structural       Sc2MnCl6
_chemical_formula_sum              "Sc2 Mn1 Cl6"
_cell_length_a       6.6109937792953755
_cell_length_b       6.6109937546616315
_cell_length_c       6.610993774618193
_cell_angle_alpha    59.99999794284492
_cell_angle_beta     59.99999997560462
_cell_angle_gamma    59.99999985090576

_space_group_name_H-M_alt    "P 1"
_space_group_IT_number       1

loop_
  _space_group_symop_operation_xyz
  'x, y, z'

loop_
  _atom_site_type_symbol
  _atom_site_label
  _atom_site_symmetry_multiplicity
  _atom_site_fract_x
  _atom_site_fract_y
  _atom_site_fract_z
  _atom_site_occupancy
  Sc  Sc1       1.0  0.24999994474079726  0.2500000524273675  0.24999994963035366  1.0000
  Sc  Sc2       1.0  0.7499999115771705  0.7499996422625809  0.7500003142824381  1.0000
  Mn  Mn1       1.0  2.0042437356458207e-08  0.9999999870318826  7.051263405684329e-09  1.0000
  Cl  Cl1       1.0  0.24733015763967928  0.2473303599191859  0.7526697534130325  1.0000
  Cl  Cl2       1.0  0.7526698191899933  0.7526697015832269  0.2473302078450252  1.0000
  Cl  Cl3       1.0  0.7526697956433265  0.24733037274708403  0.24733017543751007  1.0000
  Cl  Cl4       1.0  0.2473303198396029  0.7526697758269754  0.7526696638823034  1.0000
  Cl  Cl5       1.0  0.24733025069079104  0.7526698425260232  0.2473302102696337  1.0000
  Cl  Cl6       1.0  0.7526697794370139  0.24733026343850648  0.7526697157219858  1.0000
