data_image0
_chemical_formula_structural       Sc2MnBr6
_chemical_formula_sum              "Sc2 Mn1 Br6"
_cell_length_a       6.894293493880679
_cell_length_b       6.894293377556042
_cell_length_c       6.894293566013086
_cell_angle_alpha    59.999999744945896
_cell_angle_beta     60.000003281848755
_cell_angle_gamma    60.000000298656154

_space_group_name_H-M_alt    "P 1"
_space_group_IT_number       1

loop_
  _space_group_symop_operation_xyz
  'x, y, z'

loop_
  _atom_site_type_symbol
  _atom_site_label
  _atom_site_symmetry_multiplicity
  _atom_site_fract_x
  _atom_site_fract_y
  _atom_site_fract_z
  _atom_site_occupancy
  Sc  Sc1       1.0  0.2500000320772337  0.24999979996936153  0.25000016559594507  1.0000
  Sc  Sc2       1.0  0.7499999429479935  0.7499998848821564  0.7500001960484822  1.0000
  Mn  Mn1       1.0  1.2586129685487711e-08  4.263508359283957e-08  0.9999999114694467  1.0000
  Br  Br1       1.0  0.2419858318315195  0.24198581698167432  0.7580141361280813  1.0000
  Br  Br2       1.0  0.7580141125321667  0.7580142462562088  0.24198578476654717  1.0000
  Br  Br3       1.0  0.7580142365896794  0.24198584263990677  0.24198574217579358  1.0000
  Br  Br4       1.0  0.24198580320640178  0.7580142809976772  0.7580141588217874  1.0000
  Br  Br5       1.0  0.24198585973586795  0.7580142256510923  0.2419856912184098  1.0000
  Br  Br6       1.0  0.7580141686583881  0.241985851798485  0.7580142182674371  1.0000
