data_image0
_chemical_formula_structural       Sc2MoI6
_chemical_formula_sum              "Sc2 Mo1 I6"
_cell_length_a       7.766832923525646
_cell_length_b       7.766832895143822
_cell_length_c       7.76683281837053
_cell_angle_alpha    59.99999945046517
_cell_angle_beta     60.00000010256162
_cell_angle_gamma    59.99999955005251

_space_group_name_H-M_alt    "P 1"
_space_group_IT_number       1

loop_
  _space_group_symop_operation_xyz
  'x, y, z'

loop_
  _atom_site_type_symbol
  _atom_site_label
  _atom_site_symmetry_multiplicity
  _atom_site_fract_x
  _atom_site_fract_y
  _atom_site_fract_z
  _atom_site_occupancy
  Sc  Sc1       1.0  0.24999997024229562  0.24999996625079524  0.2500000050868727  1.0000
  Sc  Sc2       1.0  0.7500000206066059  0.7499999839044975  0.7500000761104126  1.0000
  Mo  Mo1       1.0  8.724401287979092e-09  3.6268492972742115e-08  0.9999999491779783  1.0000
  I   I1        1.0  0.2528017054510283  0.2528016840723675  0.7471983018262185  1.0000
  I   I2        1.0  0.7471982721669311  0.7471983102358739  0.25280167378323615  1.0000
  I   I3        1.0  0.7471983418206658  0.2528017043899102  0.25280164117404724  1.0000
  I   I4        1.0  0.2528016214249066  0.7471983419557333  0.7471983568037349  1.0000
  I   I5        1.0  0.2528016839994882  0.7471983288773792  0.25280168675669396  1.0000
  I   I6        1.0  0.7471983728648651  0.2528016417774968  0.7471983138448166  1.0000
