data_image0
_chemical_formula_structural       Sc2MoI6
_chemical_formula_sum              "Sc2 Mo1 I6"
_cell_length_a       7.766971054532472
_cell_length_b       7.7669711592477695
_cell_length_c       7.766971073421919
_cell_angle_alpha    59.99999900968131
_cell_angle_beta     60.0000009480943
_cell_angle_gamma    59.999999812841224

_space_group_name_H-M_alt    "P 1"
_space_group_IT_number       1

loop_
  _space_group_symop_operation_xyz
  'x, y, z'

loop_
  _atom_site_type_symbol
  _atom_site_label
  _atom_site_symmetry_multiplicity
  _atom_site_fract_x
  _atom_site_fract_y
  _atom_site_fract_z
  _atom_site_occupancy
  Sc  Sc1       1.0  0.2500000125092987  0.25000003723953734  0.24999989639294443  1.0000
  Sc  Sc2       1.0  0.7500000830920337  0.7499999571860406  0.7499999998761863  1.0000
  Mo  Mo1       1.0  0.9999999816032664  5.519020174207663e-08  1.2503341693582724e-08  1.0000
  I   I1        1.0  0.25287557157407453  0.25287566737166367  0.7471243923360676  1.0000
  I   I2        1.0  0.7471244375292367  0.747124341245679  0.25287563149891656  1.0000
  I   I3        1.0  0.7471243342294291  0.2528756133775262  0.2528756800008174  1.0000
  I   I4        1.0  0.25287563135565094  0.747124338472752  0.7471243643642416  1.0000
  I   I5        1.0  0.2528755459772785  0.7471244142186927  0.25287563518733175  1.0000
  I   I6        1.0  0.7471244050707788  0.25287557232257  0.7471243900882236  1.0000
