data_image0
_chemical_formula_structural       Sc2MoF6
_chemical_formula_sum              "Sc2 Mo1 F6"
_cell_length_a       5.597058629617761
_cell_length_b       5.597059601927985
_cell_length_c       5.597060345288482
_cell_angle_alpha    60.00001894872345
_cell_angle_beta     60.00000822268243
_cell_angle_gamma    60.000008507412936

_space_group_name_H-M_alt    "P 1"
_space_group_IT_number       1

loop_
  _space_group_symop_operation_xyz
  'x, y, z'

loop_
  _atom_site_type_symbol
  _atom_site_label
  _atom_site_symmetry_multiplicity
  _atom_site_fract_x
  _atom_site_fract_y
  _atom_site_fract_z
  _atom_site_occupancy
  Sc  Sc1       1.0  0.2499992751739245  0.25000114566068427  0.2500006308067676  1.0000
  Sc  Sc2       1.0  0.7500020487706084  0.7499972225128642  0.7499975048469875  1.0000
  Mo  Mo1       1.0  0.9999998405588181  1.7505548684322682e-07  2.1731102943664107e-07  1.0000
  F   F1        1.0  0.25848096402250476  0.258482475021604  0.741517933992479  1.0000
  F   F2        1.0  0.7415182567163482  0.741518396445307  0.25848276556848826  1.0000
  F   F3        1.0  0.7415180199243776  0.2584818107148594  0.25848205544441594  1.0000
  F   F4        1.0  0.25848175621807523  0.7415187128293071  0.7415183474177052  1.0000
  F   F5        1.0  0.25848096307398605  0.7415176119600793  0.2584824923863781  1.0000
  F   F6        1.0  0.7415188676088731  0.258482611801628  0.7415178990978116  1.0000
