data_image0
_chemical_formula_structural       Sc2MoCl6
_chemical_formula_sum              "Sc2 Mo1 Cl6"
_cell_length_a       6.734800575821311
_cell_length_b       6.734800921678117
_cell_length_c       6.734800323989155
_cell_angle_alpha    60.000002043730454
_cell_angle_beta     60.00000049654878
_cell_angle_gamma    60.00000236670226

_space_group_name_H-M_alt    "P 1"
_space_group_IT_number       1

loop_
  _space_group_symop_operation_xyz
  'x, y, z'

loop_
  _atom_site_type_symbol
  _atom_site_label
  _atom_site_symmetry_multiplicity
  _atom_site_fract_x
  _atom_site_fract_y
  _atom_site_fract_z
  _atom_site_occupancy
  Sc  Sc1       1.0  0.24999988343640211  0.2500000369013775  0.2500000379356249  1.0000
  Sc  Sc2       1.0  0.7500000692602574  0.7500001088856034  0.7499998280297108  1.0000
  Mo  Mo1       1.0  2.7952467971531065e-08  0.9999999727220263  0.9999999610573025  1.0000
  Cl  Cl1       1.0  0.2529477146443646  0.25294779843269644  0.7470522427182835  1.0000
  Cl  Cl2       1.0  0.7470522916900544  0.7470522018717555  0.25294777607683855  1.0000
  Cl  Cl3       1.0  0.7470522204827492  0.2529477734547316  0.2529477277472023  1.0000
  Cl  Cl4       1.0  0.25294777319332173  0.7470521413787348  0.7470523356581119  1.0000
  Cl  Cl5       1.0  0.25294773246416186  0.7470522231894194  0.25294780571610553  1.0000
  Cl  Cl6       1.0  0.7470522842792723  0.25294774074439974  0.7470522913921261  1.0000
