data_image0
_chemical_formula_structural       Sc2MoBr6
_chemical_formula_sum              "Sc2 Mo1 Br6"
_cell_length_a       7.085284771548245
_cell_length_b       7.085284684122838
_cell_length_c       7.085285429527789
_cell_angle_alpha    59.999998843374236
_cell_angle_beta     59.99999881744276
_cell_angle_gamma    59.99999991992418

_space_group_name_H-M_alt    "P 1"
_space_group_IT_number       1

loop_
  _space_group_symop_operation_xyz
  'x, y, z'

loop_
  _atom_site_type_symbol
  _atom_site_label
  _atom_site_symmetry_multiplicity
  _atom_site_fract_x
  _atom_site_fract_y
  _atom_site_fract_z
  _atom_site_occupancy
  Sc  Sc1       1.0  0.24999982950335392  0.2500002531562808  0.2500000534629185  1.0000
  Sc  Sc2       1.0  0.7499999904772917  0.7499999038240273  0.7500005672817864  1.0000
  Mo  Mo1       1.0  1.7926881062946708e-08  0.9999999999999996  0.9999999585749179  1.0000
  Br  Br1       1.0  0.25390345301815026  0.25390347248667733  0.746096503057046  1.0000
  Br  Br2       1.0  0.7460965665477558  0.7460965306504075  0.2539033397306171  1.0000
  Br  Br3       1.0  0.7460965851706746  0.25390356612301107  0.2539032921431635  1.0000
  Br  Br4       1.0  0.2539034317938872  0.7460964594855533  0.7460965068364144  1.0000
  Br  Br5       1.0  0.25390353227860174  0.746096437935256  0.2539033645385675  1.0000
  Br  Br6       1.0  0.7460966050252354  0.25390337332995816  0.7460964136970101  1.0000
