data_image0
_chemical_formula_structural       Sc2NF6
_chemical_formula_sum              "Sc2 N1 F6"
_cell_length_a       5.053894933850531
_cell_length_b       5.053894180883595
_cell_length_c       5.05389584492468
_cell_angle_alpha    59.99999350953704
_cell_angle_beta     59.999996245831156
_cell_angle_gamma    59.99999418778413

_space_group_name_H-M_alt    "P 1"
_space_group_IT_number       1

loop_
  _space_group_symop_operation_xyz
  'x, y, z'

loop_
  _atom_site_type_symbol
  _atom_site_label
  _atom_site_symmetry_multiplicity
  _atom_site_fract_x
  _atom_site_fract_y
  _atom_site_fract_z
  _atom_site_occupancy
  Sc  Sc1       1.0  0.24999983934781633  0.250000508973165  0.24999981805532404  1.0000
  Sc  Sc2       1.0  0.7499999657966975  0.7499997724004049  0.7499991221704025  1.0000
  N   N1        1.0  0.9999999782372461  0.999999983036429  2.884624943043651e-07  1.0000
  F   F1        1.0  0.25031955026593117  0.25031957595189075  0.7496805414199179  1.0000
  F   F2        1.0  0.7496803396530328  0.7496802934490271  0.25031984062672824  1.0000
  F   F3        1.0  0.7496803411811973  0.250319568538788  0.250319879915804  1.0000
  F   F4        1.0  0.25031979714827224  0.7496806934478932  0.749680353777151  1.0000
  F   F5        1.0  0.2503198513183768  0.7496803673565523  0.2503195793750303  1.0000
  F   F6        1.0  0.7496803836727474  0.2503193784525532  0.7496806246566105  1.0000
