data_image0
_chemical_formula_structural       Sc2NF6
_chemical_formula_sum              "Sc2 N1 F6"
_cell_length_a       5.0551698721793255
_cell_length_b       5.055170256682587
_cell_length_c       5.055169553052091
_cell_angle_alpha    59.99999165226029
_cell_angle_beta     59.999994010867916
_cell_angle_gamma    59.99998866305831

_space_group_name_H-M_alt    "P 1"
_space_group_IT_number       1

loop_
  _space_group_symop_operation_xyz
  'x, y, z'

loop_
  _atom_site_type_symbol
  _atom_site_label
  _atom_site_symmetry_multiplicity
  _atom_site_fract_x
  _atom_site_fract_y
  _atom_site_fract_z
  _atom_site_occupancy
  Sc  Sc1       1.0  0.24999957451555602  0.25000095080896073  0.25000044406344707  1.0000
  Sc  Sc2       1.0  0.7499999668839553  0.7500004175560919  0.7499995660186747  1.0000
  N   N1        1.0  1.1502155467161054e-07  0.9999997577242709  8.143066109887562e-08  1.0000
  F   F1        1.0  0.25030242306944706  0.2503024507933919  0.7496974633389073  1.0000
  F   F2        1.0  0.7496978122956548  0.7496971029265532  0.2503024661550507  1.0000
  F   F3        1.0  0.7496976971849278  0.250302491112135  0.25030234476801927  1.0000
  F   F4        1.0  0.25030231379426043  0.7496972903470082  0.7496975434858278  1.0000
  F   F5        1.0  0.2503026213696805  0.7496971885275543  0.25030260063143606  1.0000
  F   F6        1.0  0.7496976842988529  0.2503023118917235  0.7496973520119093  1.0000
