data_image0
_chemical_formula_structural       Sc2NbF6
_chemical_formula_sum              "Sc2 Nb1 F6"
_cell_length_a       5.660265268100722
_cell_length_b       5.660263390348012
_cell_length_c       5.660264191251904
_cell_angle_alpha    60.00000169490605
_cell_angle_beta     60.0000065175273
_cell_angle_gamma    60.00000336957554

_space_group_name_H-M_alt    "P 1"
_space_group_IT_number       1

loop_
  _space_group_symop_operation_xyz
  'x, y, z'

loop_
  _atom_site_type_symbol
  _atom_site_label
  _atom_site_symmetry_multiplicity
  _atom_site_fract_x
  _atom_site_fract_y
  _atom_site_fract_z
  _atom_site_occupancy
  Sc  Sc1       1.0  0.2500013020028769  0.2499989493561682  0.24999997766440593  1.0000
  Sc  Sc2       1.0  0.7499998300612722  0.749999559258828  0.7500002143305077  1.0000
  Nb  Nb1       1.0  2.650462036006105e-07  0.9999994374225503  1.9469984810464935e-07  1.0000
  F   F1        1.0  0.26047630257669285  0.26047527764444933  0.7395238057184819  1.0000
  F   F2        1.0  0.7395225825323758  0.7395254185312131  0.2604760378995152  1.0000
  F   F3        1.0  0.7395232071913538  0.2604759364400549  0.26047557610847866  1.0000
  F   F4        1.0  0.2604767817299802  0.739524679676555  0.7395232362225255  1.0000
  F   F5        1.0  0.2604762307992077  0.7395248726540423  0.2604759116938175  1.0000
  F   F6        1.0  0.7395235272896252  0.2604758667969804  0.7395248959917211  1.0000
