data_image0
_chemical_formula_structural       Sc2NbCl6
_chemical_formula_sum              "Sc2 Nb1 Cl6"
_cell_length_a       6.649769176400975
_cell_length_b       6.64976942726261
_cell_length_c       6.649769009929997
_cell_angle_alpha    59.999999286688464
_cell_angle_beta     59.99999958021033
_cell_angle_gamma    59.99999881574322

_space_group_name_H-M_alt    "P 1"
_space_group_IT_number       1

loop_
  _space_group_symop_operation_xyz
  'x, y, z'

loop_
  _atom_site_type_symbol
  _atom_site_label
  _atom_site_symmetry_multiplicity
  _atom_site_fract_x
  _atom_site_fract_y
  _atom_site_fract_z
  _atom_site_occupancy
  Sc  Sc1       1.0  0.25000029323868816  0.25000002142247657  0.24999996512646602  1.0000
  Sc  Sc2       1.0  0.7500000197840001  0.7500002060849511  0.7499993040277223  1.0000
  Nb  Nb1       1.0  7.294905912128113e-08  0.9999999686896417  1.2655418971546142e-07  1.0000
  Cl  Cl1       1.0  0.2587297612817563  0.2587297616141164  0.7412701975844571  1.0000
  Cl  Cl2       1.0  0.741270170567242  0.7412702393536857  0.25873000552347186  1.0000
  Cl  Cl3       1.0  0.7412701734632343  0.2587295745276143  0.2587299119126914  1.0000
  Cl  Cl4       1.0  0.258729824690045  0.7412702275273574  0.7412702522327016  1.0000
  Cl  Cl5       1.0  0.25872960139266526  0.7412702644534894  0.25872986540941584  1.0000
  Cl  Cl6       1.0  0.7412701049282304  0.25872972546360545  0.7412703823011505  1.0000
