data_image0
_chemical_formula_structural       Sc2NiBr6
_chemical_formula_sum              "Sc2 Ni1 Br6"
_cell_length_a       6.904784060111241
_cell_length_b       6.9047841969596435
_cell_length_c       6.904784316857257
_cell_angle_alpha    59.99999978227688
_cell_angle_beta     59.99999952653251
_cell_angle_gamma    59.999999961983754

_space_group_name_H-M_alt    "P 1"
_space_group_IT_number       1

loop_
  _space_group_symop_operation_xyz
  'x, y, z'

loop_
  _atom_site_type_symbol
  _atom_site_label
  _atom_site_symmetry_multiplicity
  _atom_site_fract_x
  _atom_site_fract_y
  _atom_site_fract_z
  _atom_site_occupancy
  Sc  Sc1       1.0  0.24999986240728556  0.2500001025897925  0.24999995610845224  1.0000
  Sc  Sc2       1.0  0.7499999875034586  0.7499999547905983  0.7500001995003813  1.0000
  Ni  Ni1       1.0  1.3462595260913294e-08  2.4832677936763493e-08  2.5748769540434913e-08  1.0000
  Br  Br1       1.0  0.2477407138972918  0.24774068247557252  0.7522592956634325  1.0000
  Br  Br2       1.0  0.7522593445317606  0.7522592560627163  0.247740593521811  1.0000
  Br  Br3       1.0  0.7522593332397856  0.24774070244354157  0.24774068156081328  1.0000
  Br  Br4       1.0  0.24774070777337448  0.752259243189798  0.7522593054742054  1.0000
  Br  Br5       1.0  0.2477407088041593  0.7522593188639223  0.24774069273338073  1.0000
  Br  Br6       1.0  0.7522593267514599  0.247740708362502  0.7522592576821374  1.0000
