data_image0
_chemical_formula_structural       Sc2NbI6
_chemical_formula_sum              "Sc2 Nb1 I6"
_cell_length_a       7.906253817263033
_cell_length_b       7.906253876196416
_cell_length_c       7.906253727722726
_cell_angle_alpha    60.00000029066981
_cell_angle_beta     59.99999986985354
_cell_angle_gamma    59.999999969071496

_space_group_name_H-M_alt    "P 1"
_space_group_IT_number       1

loop_
  _space_group_symop_operation_xyz
  'x, y, z'

loop_
  _atom_site_type_symbol
  _atom_site_label
  _atom_site_symmetry_multiplicity
  _atom_site_fract_x
  _atom_site_fract_y
  _atom_site_fract_z
  _atom_site_occupancy
  Sc  Sc1       1.0  0.24999999704886527  0.2499999983148622  0.2499999850736408  1.0000
  Sc  Sc2       1.0  0.7500000243986935  0.7499999871991679  0.7500000664200934  1.0000
  Nb  Nb1       1.0  0.9999999920192012  0.9999999845091634  3.95618915892731e-08  1.0000
  I   I1        1.0  0.2516461830474003  0.2516461822584211  0.7483538211057741  1.0000
  I   I2        1.0  0.7483538467201312  0.7483538264918641  0.2516461399853752  1.0000
  I   I3        1.0  0.7483537826118069  0.2516462245250754  0.25164617894916574  1.0000
  I   I4        1.0  0.2516461983545968  0.7483537904215446  0.7483538059740235  1.0000
  I   I5        1.0  0.25164620632988594  0.748353795982577  0.25164619972294805  1.0000
  I   I6        1.0  0.7483537785902206  0.25164621586587554  0.7483537620056857  1.0000
