data_image0
_chemical_formula_structural       Sc2NiI6
_chemical_formula_sum              "Sc2 Ni1 I6"
_cell_length_a       7.529071778589194
_cell_length_b       7.529071788530911
_cell_length_c       7.529071771986546
_cell_angle_alpha    59.999999845776486
_cell_angle_beta     59.999999805746434
_cell_angle_gamma    59.999999537726616

_space_group_name_H-M_alt    "P 1"
_space_group_IT_number       1

loop_
  _space_group_symop_operation_xyz
  'x, y, z'

loop_
  _atom_site_type_symbol
  _atom_site_label
  _atom_site_symmetry_multiplicity
  _atom_site_fract_x
  _atom_site_fract_y
  _atom_site_fract_z
  _atom_site_occupancy
  Sc  Sc1       1.0  0.25000000438172115  0.2499999738377785  0.25000006768382044  1.0000
  Sc  Sc2       1.0  0.7499999974045535  0.7499999963409717  0.7500000300639709  1.0000
  Ni  Ni1       1.0  0.9999999837650462  0.9999999934932492  0.9999999887917078  1.0000
  I   I1        1.0  0.24876473810403418  0.24876471185863672  0.7512352632829863  1.0000
  I   I2        1.0  0.7512352874764804  0.7512352973606192  0.24876468749533956  1.0000
  I   I3        1.0  0.7512352470504947  0.24876471666577613  0.2487647514281032  1.0000
  I   I4        1.0  0.2487647135582806  0.7512353218338592  0.7512352490723418  1.0000
  I   I5        1.0  0.24876474411278765  0.7512352657684023  0.24876469911171487  1.0000
  I   I6        1.0  0.7512352854493953  0.24876472230391308  0.751235264233802  1.0000
