data_image0
_chemical_formula_structural       Sc2NbBr6
_chemical_formula_sum              "Sc2 Nb1 Br6"
_cell_length_a       7.187410454420607
_cell_length_b       7.187410266787675
_cell_length_c       7.187409614072685
_cell_angle_alpha    60.00000194566144
_cell_angle_beta     60.00000449229436
_cell_angle_gamma    60.00000349224405

_space_group_name_H-M_alt    "P 1"
_space_group_IT_number       1

loop_
  _space_group_symop_operation_xyz
  'x, y, z'

loop_
  _atom_site_type_symbol
  _atom_site_label
  _atom_site_symmetry_multiplicity
  _atom_site_fract_x
  _atom_site_fract_y
  _atom_site_fract_z
  _atom_site_occupancy
  Sc  Sc1       1.0  0.2499997887316336  0.25000013732278376  0.25000012978408426  1.0000
  Sc  Sc2       1.0  0.7500002254875198  0.749999805339354  0.7500001586713125  1.0000
  Nb  Nb1       1.0  1.3225573887297858e-08  8.520072018668855e-09  0.9999999070391882  1.0000
  Br  Br1       1.0  0.25378936913921196  0.25378939410883394  0.746210578020292  1.0000
  Br  Br2       1.0  0.7462106532574837  0.7462106252339439  0.2537893006970463  1.0000
  Br  Br3       1.0  0.7462106088232797  0.25378941505092545  0.2537893101740892  1.0000
  Br  Br4       1.0  0.25378936915774625  0.7462106025878367  0.746210623603494  1.0000
  Br  Br5       1.0  0.25378936842369265  0.7462106147705304  0.253789328424582  1.0000
  Br  Br6       1.0  0.7462106038940077  0.2537893909401321  0.7462106628449784  1.0000
