data_image0
_chemical_formula_structural       Sc2NiCl6
_chemical_formula_sum              "Sc2 Ni1 Cl6"
_cell_length_a       6.572482504682364
_cell_length_b       6.572482678387001
_cell_length_c       6.572482561122386
_cell_angle_alpha    60.00000039911122
_cell_angle_beta     60.00000080142913
_cell_angle_gamma    59.99999964700115

_space_group_name_H-M_alt    "P 1"
_space_group_IT_number       1

loop_
  _space_group_symop_operation_xyz
  'x, y, z'

loop_
  _atom_site_type_symbol
  _atom_site_label
  _atom_site_symmetry_multiplicity
  _atom_site_fract_x
  _atom_site_fract_y
  _atom_site_fract_z
  _atom_site_occupancy
  Sc  Sc1       1.0  0.25000018894436843  0.25000001190132054  0.24999998029938522  1.0000
  Sc  Sc2       1.0  0.7499998068021538  0.7499999071263861  0.7500002224024375  1.0000
  Ni  Ni1       1.0  0.9999999877019012  2.519664483544272e-16  0.9999999909340982  1.0000
  Cl  Cl1       1.0  0.24719199817419255  0.24719199544108136  0.7528079849130441  1.0000
  Cl  Cl2       1.0  0.7528080384218004  0.7528080540276555  0.24719191304823426  1.0000
  Cl  Cl3       1.0  0.7528079710451195  0.24719199058741112  0.24719192765570647  1.0000
  Cl  Cl4       1.0  0.2471920328097528  0.7528080253393473  0.7528079851891799  1.0000
  Cl  Cl5       1.0  0.24719202208793845  0.7528080303720169  0.24719191083681188  1.0000
  Cl  Cl6       1.0  0.7528079511724043  0.2471919930085145  0.7528080759597514  1.0000
