data_image0
_chemical_formula_structural       Sc2OsCl6
_chemical_formula_sum              "Sc2 Os1 Cl6"
_cell_length_a       6.829481192647787
_cell_length_b       6.829481300497694
_cell_length_c       6.829481038574317
_cell_angle_alpha    60.00000158314539
_cell_angle_beta     60.00000199949207
_cell_angle_gamma    59.99999986766718

_space_group_name_H-M_alt    "P 1"
_space_group_IT_number       1

loop_
  _space_group_symop_operation_xyz
  'x, y, z'

loop_
  _atom_site_type_symbol
  _atom_site_label
  _atom_site_symmetry_multiplicity
  _atom_site_fract_x
  _atom_site_fract_y
  _atom_site_fract_z
  _atom_site_occupancy
  Sc  Sc1       1.0  0.24999964034296346  0.25000022302414354  0.2499997126439439  1.0000
  Sc  Sc2       1.0  0.7500002852138536  0.7499997365457645  0.7500004668759997  1.0000
  Os  Os1       1.0  4.354344183443986e-09  3.765972962358591e-08  8.277765230538325e-09  1.0000
  Cl  Cl1       1.0  0.24547645942680285  0.24547662544721754  0.7545235895332271  1.0000
  Cl  Cl2       1.0  0.7545235287378567  0.7545234202020717  0.2454763516482144  1.0000
  Cl  Cl3       1.0  0.7545236146292416  0.24547657932352038  0.24547641786171467  1.0000
  Cl  Cl4       1.0  0.24547631149015225  0.7545234394259631  0.7545235648637816  1.0000
  Cl  Cl5       1.0  0.24547652648731527  0.7545235512077159  0.24547646212946791  1.0000
  Cl  Cl6       1.0  0.7545236190732628  0.24547639760226575  0.7545234165603871  1.0000
