data_image0
_chemical_formula_structural       Sc2OsBr6
_chemical_formula_sum              "Sc2 Os1 Br6"
_cell_length_a       7.109690359921589
_cell_length_b       7.109690559931967
_cell_length_c       7.109690350496831
_cell_angle_alpha    60.0000001387493
_cell_angle_beta     59.99999990721476
_cell_angle_gamma    60.000000009515425

_space_group_name_H-M_alt    "P 1"
_space_group_IT_number       1

loop_
  _space_group_symop_operation_xyz
  'x, y, z'

loop_
  _atom_site_type_symbol
  _atom_site_label
  _atom_site_symmetry_multiplicity
  _atom_site_fract_x
  _atom_site_fract_y
  _atom_site_fract_z
  _atom_site_occupancy
  Sc  Sc1       1.0  0.25000004883365073  0.24999988672689322  0.25000020264772344  1.0000
  Sc  Sc2       1.0  0.7499999686776855  0.7500000426071185  0.7500000358602221  1.0000
  Os  Os1       1.0  0.9999999676976933  1.8949058014868487e-08  0.9999999729198799  1.0000
  Br  Br1       1.0  0.24606061441458882  0.24606060921321918  0.7539393356729325  1.0000
  Br  Br2       1.0  0.7539393699893814  0.7539394096981576  0.2460606411158641  1.0000
  Br  Br3       1.0  0.7539393991600881  0.24606058788162063  0.24606054384771825  1.0000
  Br  Br4       1.0  0.24606056860858266  0.753939451701456  0.753939357783265  1.0000
  Br  Br5       1.0  0.24606061462921125  0.753939413184702  0.2460605334371694  1.0000
  Br  Br6       1.0  0.7539394435329877  0.24606059883610854  0.7539393564696172  1.0000
