data_image0
_chemical_formula_structural       Sc2OsI6
_chemical_formula_sum              "Sc2 Os1 I6"
_cell_length_a       7.682649056555691
_cell_length_b       7.6826491409793505
_cell_length_c       7.682649097988742
_cell_angle_alpha    59.99999989175289
_cell_angle_beta     59.99999987059306
_cell_angle_gamma    60.00000002295752

_space_group_name_H-M_alt    "P 1"
_space_group_IT_number       1

loop_
  _space_group_symop_operation_xyz
  'x, y, z'

loop_
  _atom_site_type_symbol
  _atom_site_label
  _atom_site_symmetry_multiplicity
  _atom_site_fract_x
  _atom_site_fract_y
  _atom_site_fract_z
  _atom_site_occupancy
  Sc  Sc1       1.0  0.25000003046930014  0.2499999774424069  0.2500000061264295  1.0000
  Sc  Sc2       1.0  0.7500000570056502  0.7499999498630907  0.7499999656356638  1.0000
  Os  Os1       1.0  0.9999999901015768  0.9999999936233199  3.286860435280748e-08  1.0000
  I   I1        1.0  0.24740659078685587  0.24740666284455706  0.7525933729891869  1.0000
  I   I2        1.0  0.7525933854036797  0.7525933728644999  0.24740663145255826  1.0000
  I   I3        1.0  0.7525933676697246  0.2474066249953134  0.24740661884532794  1.0000
  I   I4        1.0  0.24740662162321667  0.7525933804245138  0.7525933616489704  1.0000
  I   I5        1.0  0.24740660052991545  0.7525933933572547  0.2474066273402669  1.0000
  I   I6        1.0  0.752593360099251  0.24740664394597237  0.7525933827834435  1.0000
