data_image0
_chemical_formula_structural       Sc2OsF6
_chemical_formula_sum              "Sc2 Os1 F6"
_cell_length_a       5.334280550446775
_cell_length_b       5.334280591068701
_cell_length_c       5.334280938587769
_cell_angle_alpha    60.0000027635006
_cell_angle_beta     60.000001837433786
_cell_angle_gamma    60.00000520111409

_space_group_name_H-M_alt    "P 1"
_space_group_IT_number       1

loop_
  _space_group_symop_operation_xyz
  'x, y, z'

loop_
  _atom_site_type_symbol
  _atom_site_label
  _atom_site_symmetry_multiplicity
  _atom_site_fract_x
  _atom_site_fract_y
  _atom_site_fract_z
  _atom_site_occupancy
  Sc  Sc1       1.0  0.2500003914411609  0.2499997762935992  0.25000028976408445  1.0000
  Sc  Sc2       1.0  0.7500002711341858  0.7500002266123243  0.7499999346876844  1.0000
  Os  Os1       1.0  0.9999998750826369  4.591970232630356e-09  0.9999999982986844  1.0000
  F   F1        1.0  0.2766734818114057  0.27667326272261644  0.7233263509598528  1.0000
  F   F2        1.0  0.7233264389355735  0.7233267057434177  0.2766735117592528  1.0000
  F   F3        1.0  0.7233264094538265  0.2766734432018026  0.2766734184633223  1.0000
  F   F4        1.0  0.2766732062233977  0.7233267066473313  0.7233265248457772  1.0000
  F   F5        1.0  0.27667340226487297  0.723326652170603  0.2766733629664135  1.0000
  F   F6        1.0  0.7233265131923837  0.2766732152719283  0.7233266072746414  1.0000
