data_image0
_chemical_formula_structural       Sc2PF6
_chemical_formula_sum              "Sc2 P1 F6"
_cell_length_a       5.445805983675681
_cell_length_b       5.44580759631567
_cell_length_c       5.445805932839933
_cell_angle_alpha    60.00000224555773
_cell_angle_beta     59.999997143436765
_cell_angle_gamma    60.00000077770026

_space_group_name_H-M_alt    "P 1"
_space_group_IT_number       1

loop_
  _space_group_symop_operation_xyz
  'x, y, z'

loop_
  _atom_site_type_symbol
  _atom_site_label
  _atom_site_symmetry_multiplicity
  _atom_site_fract_x
  _atom_site_fract_y
  _atom_site_fract_z
  _atom_site_occupancy
  Sc  Sc1       1.0  0.24999979633504524  0.2499963351567532  0.24999963342846013  1.0000
  Sc  Sc2       1.0  0.7500021134546545  0.7499969128418463  0.7499996624461904  1.0000
  P   P1        1.0  0.9999998033839543  1.378617501819569e-06  0.999999634861081  1.0000
  F   F1        1.0  0.26624434534001434  0.26624658429720677  0.7337558786662306  1.0000
  F   F2        1.0  0.7337553871493836  0.7337556573250308  0.2662442177897106  1.0000
  F   F3        1.0  0.7337554656280312  0.26624506125875996  0.26624572103603833  1.0000
  F   F4        1.0  0.26624407690883944  0.7337558737129689  0.7337550300714526  1.0000
  F   F5        1.0  0.26624416033004744  0.7337559862369762  0.26624531802187806  1.0000
  F   F6        1.0  0.7337547831325127  0.2662462688791376  0.7337548485249008  1.0000
