data_image0
_chemical_formula_structural       Sc2PdI6
_chemical_formula_sum              "Sc2 Pd1 I6"
_cell_length_a       7.612324154648147
_cell_length_b       7.612324198884738
_cell_length_c       7.612324206259153
_cell_angle_alpha    59.999999740791736
_cell_angle_beta     59.99999994997231
_cell_angle_gamma    60.000000323582825

_space_group_name_H-M_alt    "P 1"
_space_group_IT_number       1

loop_
  _space_group_symop_operation_xyz
  'x, y, z'

loop_
  _atom_site_type_symbol
  _atom_site_label
  _atom_site_symmetry_multiplicity
  _atom_site_fract_x
  _atom_site_fract_y
  _atom_site_fract_z
  _atom_site_occupancy
  Sc  Sc1       1.0  0.24999995088791158  0.25000003495418693  0.24999994613953536  1.0000
  Sc  Sc2       1.0  0.7499999781838907  0.7499999922397416  0.7500000947017851  1.0000
  Pd  Pd1       1.0  1.164612674071197e-09  0.9999999919555129  2.1831166544542648e-08  1.0000
  I   I1        1.0  0.25142105043480334  0.25142100027763226  0.7485789855439371  1.0000
  I   I2        1.0  0.7485789920667433  0.7485789915205536  0.25142097161596877  1.0000
  I   I3        1.0  0.748578999831895  0.2514210417543885  0.2514209971812684  1.0000
  I   I4        1.0  0.2514210035829631  0.7485789580882842  0.7485790044002414  1.0000
  I   I5        1.0  0.2514210251718626  0.7485789999183381  0.251420996039138  1.0000
  I   I6        1.0  0.7485789986828029  0.2514209886620528  0.7485789865033574  1.0000
