data_image0
_chemical_formula_structural       Sc2PBr6
_chemical_formula_sum              "Sc2 P1 Br6"
_cell_length_a       7.238591726288698
_cell_length_b       7.238591575032187
_cell_length_c       7.238591648093001
_cell_angle_alpha    60.00000082032955
_cell_angle_beta     60.00000215964269
_cell_angle_gamma    59.99999579032257

_space_group_name_H-M_alt    "P 1"
_space_group_IT_number       1

loop_
  _space_group_symop_operation_xyz
  'x, y, z'

loop_
  _atom_site_type_symbol
  _atom_site_label
  _atom_site_symmetry_multiplicity
  _atom_site_fract_x
  _atom_site_fract_y
  _atom_site_fract_z
  _atom_site_occupancy
  Sc  Sc1       1.0  0.24999994911719584  0.24999968241695925  0.25000014367087015  1.0000
  Sc  Sc2       1.0  0.749999905980671  0.7500003788279029  0.7499995618425591  1.0000
  P   P1        1.0  1.2280009237558466e-07  0.9999998900222213  3.503336988505017e-08  1.0000
  Br  Br1       1.0  0.25816694452696076  0.2581670422717094  0.7418330402622266  1.0000
  Br  Br2       1.0  0.7418329867866854  0.7418329817499058  0.25816711269659737  1.0000
  Br  Br3       1.0  0.7418331396854604  0.2581667463229443  0.25816710194694076  1.0000
  Br  Br4       1.0  0.25816697401468575  0.7418331660289232  0.7418330363757715  1.0000
  Br  Br5       1.0  0.2581668306004179  0.7418332492846621  0.2581669791544271  1.0000
  Br  Br6       1.0  0.7418331316163739  0.2581668830227574  0.7418329992171241  1.0000
