data_image0
_chemical_formula_structural       Sc2PI6
_chemical_formula_sum              "Sc2 P1 I6"
_cell_length_a       7.758296544995161
_cell_length_b       7.758296671012714
_cell_length_c       7.758296583095691
_cell_angle_alpha    60.00000000022145
_cell_angle_beta     59.99999999223266
_cell_angle_gamma    59.99999973371771

_space_group_name_H-M_alt    "P 1"
_space_group_IT_number       1

loop_
  _space_group_symop_operation_xyz
  'x, y, z'

loop_
  _atom_site_type_symbol
  _atom_site_label
  _atom_site_symmetry_multiplicity
  _atom_site_fract_x
  _atom_site_fract_y
  _atom_site_fract_z
  _atom_site_occupancy
  Sc  Sc1       1.0  0.2500000096855533  0.250000018730051  0.24999997615451697  1.0000
  Sc  Sc2       1.0  0.7499999892635151  0.7499999835733577  0.7500000658719135  1.0000
  P   P1        1.0  3.6788136548106605e-08  0.9999999700061061  0.9999999966028789  1.0000
  I   I1        1.0  0.25634714253817065  0.25634719934691524  0.7436528308102014  1.0000
  I   I2        1.0  0.7436528346119629  0.743652801377868  0.2563471481463306  1.0000
  I   I3        1.0  0.7436528199382568  0.2563471738961604  0.25634717004973223  1.0000
  I   I4        1.0  0.25634717033611343  0.7436528410362565  0.7436528210197194  1.0000
  I   I5        1.0  0.25634718051791444  0.7436528528624329  0.2563471367268844  1.0000
  I   I6        1.0  0.7436528082681129  0.256347162069984  0.7436528525088528  1.0000
