data_image0
_chemical_formula_structural       Sc2PI6
_chemical_formula_sum              "Sc2 P1 I6"
_cell_length_a       7.757822272069547
_cell_length_b       7.757822411542862
_cell_length_c       7.757822267790374
_cell_angle_alpha    60.00000004719216
_cell_angle_beta     60.00000042066344
_cell_angle_gamma    59.99999988851744

_space_group_name_H-M_alt    "P 1"
_space_group_IT_number       1

loop_
  _space_group_symop_operation_xyz
  'x, y, z'

loop_
  _atom_site_type_symbol
  _atom_site_label
  _atom_site_symmetry_multiplicity
  _atom_site_fract_x
  _atom_site_fract_y
  _atom_site_fract_z
  _atom_site_occupancy
  Sc  Sc1       1.0  0.2500000265464396  0.24999997263636287  0.249999991863726  1.0000
  Sc  Sc2       1.0  0.7500000058624801  0.7500000142111601  0.75000005584909  1.0000
  P   P1        1.0  2.1049634242165466e-09  0.99999999368511  1.2417135660045806e-08  1.0000
  I   I1        1.0  0.2563521960058051  0.2563521748539068  0.743647810671417  1.0000
  I   I2        1.0  0.7436478032061258  0.7436478356744542  0.2563521567240528  1.0000
  I   I3        1.0  0.7436478000323578  0.2563521992705303  0.25635217967130397  1.0000
  I   I4        1.0  0.25635217580058356  0.743647814415276  0.743647802991024  1.0000
  I   I5        1.0  0.25635218794637005  0.7436478167029527  0.2563521669873828  1.0000
  I   I6        1.0  0.7436478032223529  0.2563521733020162  0.7436478185584517  1.0000
