data_image0
_chemical_formula_structural       Sc2PBr6
_chemical_formula_sum              "Sc2 P1 Br6"
_cell_length_a       7.241137034330482
_cell_length_b       7.241137304881811
_cell_length_c       7.241136815676455
_cell_angle_alpha    59.99999929362865
_cell_angle_beta     59.999997288708805
_cell_angle_gamma    60.00000393745266

_space_group_name_H-M_alt    "P 1"
_space_group_IT_number       1

loop_
  _space_group_symop_operation_xyz
  'x, y, z'

loop_
  _atom_site_type_symbol
  _atom_site_label
  _atom_site_symmetry_multiplicity
  _atom_site_fract_x
  _atom_site_fract_y
  _atom_site_fract_z
  _atom_site_occupancy
  Sc  Sc1       1.0  0.24999992640953775  0.2500004729025411  0.2499994000149288  1.0000
  Sc  Sc2       1.0  0.7499999213150305  0.7500003226992863  0.750000548258906  1.0000
  P   P1        1.0  0.9999999253919044  0.9999998985177462  6.733019961188379e-08  1.0000
  Br  Br1       1.0  0.25808741283492903  0.25808770764776107  0.7419124619072094  1.0000
  Br  Br2       1.0  0.7419127782212923  0.7419120866625513  0.25808735823602386  1.0000
  Br  Br3       1.0  0.7419122802881633  0.25808750830052174  0.25808758665726267  1.0000
  Br  Br4       1.0  0.2580876798051134  0.7419121608483317  0.7419127001768946  1.0000
  Br  Br5       1.0  0.25808783743232366  0.7419126894478943  0.25808722446617094  1.0000
  Br  Br6       1.0  0.7419122455255277  0.258087170825875  0.7419126554124817  1.0000
