data_image0
_chemical_formula_structural       Sc2PtI6
_chemical_formula_sum              "Sc2 Pt1 I6"
_cell_length_a       7.638494069480786
_cell_length_b       7.6384939279611554
_cell_length_c       7.638494051957391
_cell_angle_alpha    59.99999985850539
_cell_angle_beta     59.99999991077577
_cell_angle_gamma    59.99999984303705

_space_group_name_H-M_alt    "P 1"
_space_group_IT_number       1

loop_
  _space_group_symop_operation_xyz
  'x, y, z'

loop_
  _atom_site_type_symbol
  _atom_site_label
  _atom_site_symmetry_multiplicity
  _atom_site_fract_x
  _atom_site_fract_y
  _atom_site_fract_z
  _atom_site_occupancy
  Sc  Sc1       1.0  0.24999999967462436  0.24999996323905563  0.2500000260506779  1.0000
  Sc  Sc2       1.0  0.7500000381416136  0.7500000580726218  0.7499999992894496  1.0000
  Pt  Pt1       1.0  4.367393228128513e-09  0.9999999823627619  2.7074466597766987e-09  1.0000
  I   I1        1.0  0.24951220454235468  0.2495122143848809  0.7504877894053935  1.0000
  I   I2        1.0  0.7504877995740266  0.7504878037200255  0.24951217452937477  1.0000
  I   I3        1.0  0.7504877981701723  0.24951217435606116  0.24951221988649303  1.0000
  I   I4        1.0  0.24951217795776617  0.7504878052675984  0.7504877943021815  1.0000
  I   I5        1.0  0.24951217973585646  0.7504877978988095  0.24951221814563057  1.0000
  I   I6        1.0  0.7504877995831193  0.24951219936208824  0.7504877725373205  1.0000
