data_image0
_chemical_formula_structural       Sc2PCl6
_chemical_formula_sum              "Sc2 P1 Cl6"
_cell_length_a       6.232825767473993
_cell_length_b       6.232825799932301
_cell_length_c       6.2328257348980864
_cell_angle_alpha    59.999999564348364
_cell_angle_beta     59.999999460567174
_cell_angle_gamma    59.99999969122437

_space_group_name_H-M_alt    "P 1"
_space_group_IT_number       1

loop_
  _space_group_symop_operation_xyz
  'x, y, z'

loop_
  _atom_site_type_symbol
  _atom_site_label
  _atom_site_symmetry_multiplicity
  _atom_site_fract_x
  _atom_site_fract_y
  _atom_site_fract_z
  _atom_site_occupancy
  Sc  Sc1       1.0  0.24999999603673942  0.2500000018250727  0.25000001149255097  1.0000
  Sc  Sc2       1.0  0.7499999856026098  0.7500000074402098  0.7499999801990644  1.0000
  P   P1        1.0  2.995964355229389e-08  1.5719930368172405e-08  3.8127744393790964e-08  1.0000
  Cl  Cl1       1.0  0.26135999178946684  0.2613599890223863  0.7386399994413047  1.0000
  Cl  Cl2       1.0  0.7386399880165517  0.7386399868380433  0.2613600291223077  1.0000
  Cl  Cl3       1.0  0.738640006688717  0.26135996251079113  0.26136000803298043  1.0000
  Cl  Cl4       1.0  0.2613600410282161  0.7386399819097769  0.7386399750201569  1.0000
  Cl  Cl5       1.0  0.2613599839464711  0.7386400300445101  0.261359980576985  1.0000
  Cl  Cl6       1.0  0.7386399845929359  0.26136001852059954  0.7386399771573746  1.0000
