data_image0
_chemical_formula_structural       Sc2PtBr6
_chemical_formula_sum              "Sc2 Pt1 Br6"
_cell_length_a       7.06408549238685
_cell_length_b       7.064085685913552
_cell_length_c       7.0640856892749735
_cell_angle_alpha    60.00000053858574
_cell_angle_beta     60.0000006264858
_cell_angle_gamma    59.99999958577985

_space_group_name_H-M_alt    "P 1"
_space_group_IT_number       1

loop_
  _space_group_symop_operation_xyz
  'x, y, z'

loop_
  _atom_site_type_symbol
  _atom_site_label
  _atom_site_symmetry_multiplicity
  _atom_site_fract_x
  _atom_site_fract_y
  _atom_site_fract_z
  _atom_site_occupancy
  Sc  Sc1       1.0  0.250000013397524  0.25000005073635534  0.2499999726651623  1.0000
  Sc  Sc2       1.0  0.7499999022425118  0.7500001001961851  0.7500000327955149  1.0000
  Pt  Pt1       1.0  0.9999999886569043  0.9999999947987119  0.9999999757131303  1.0000
  Br  Br1       1.0  0.2454265782940388  0.2454265010299892  0.7545734742501986  1.0000
  Br  Br2       1.0  0.7545734927527726  0.7545734435847813  0.2454265141976355  1.0000
  Br  Br3       1.0  0.7545734427873702  0.24542653710079018  0.24542653675235626  1.0000
  Br  Br4       1.0  0.2454265650706672  0.7545734352541851  0.7545734807446528  1.0000
  Br  Br5       1.0  0.24542655951133355  0.7545734280988318  0.24542653472844062  1.0000
  Br  Br6       1.0  0.7545734559588313  0.24542651651593947  0.7545734758452702  1.0000
