data_image0
_chemical_formula_structural       Sc2PdBr6
_chemical_formula_sum              "Sc2 Pd1 Br6"
_cell_length_a       7.00349412121706
_cell_length_b       7.003494327655978
_cell_length_c       7.003494147672223
_cell_angle_alpha    60.00000096144323
_cell_angle_beta     60.00000041204477
_cell_angle_gamma    60.000000301376836

_space_group_name_H-M_alt    "P 1"
_space_group_IT_number       1

loop_
  _space_group_symop_operation_xyz
  'x, y, z'

loop_
  _atom_site_type_symbol
  _atom_site_label
  _atom_site_symmetry_multiplicity
  _atom_site_fract_x
  _atom_site_fract_y
  _atom_site_fract_z
  _atom_site_occupancy
  Sc  Sc1       1.0  0.2500001092940486  0.24999982975504076  0.25000002972478036  1.0000
  Sc  Sc2       1.0  0.750000093582277  0.7500001328097413  0.7499998245819003  1.0000
  Pd  Pd1       1.0  0.9999999995999465  2.0985150562827503e-08  0.9999999897074515  1.0000
  Br  Br1       1.0  0.24968770825434491  0.24968769799338061  0.7503122884368959  1.0000
  Br  Br2       1.0  0.7503122031247876  0.7503123625021063  0.24968773975739736  1.0000
  Br  Br3       1.0  0.7503122614095711  0.24968769051346218  0.2496877473504722  1.0000
  Br  Br4       1.0  0.2496876876422312  0.7503122965339974  0.7503122830250541  1.0000
  Br  Br5       1.0  0.24968764969859358  0.7503122934205576  0.24968778012690557  1.0000
  Br  Br6       1.0  0.750312286363242  0.24968768313432688  0.7503123191042392  1.0000
