data_image0
_chemical_formula_structural       Sc2PdF6
_chemical_formula_sum              "Sc2 Pd1 F6"
_cell_length_a       5.3391641234041005
_cell_length_b       5.339163898137067
_cell_length_c       5.3391641679647845
_cell_angle_alpha    59.99999790677717
_cell_angle_beta     60.000001734030256
_cell_angle_gamma    59.999998687461606

_space_group_name_H-M_alt    "P 1"
_space_group_IT_number       1

loop_
  _space_group_symop_operation_xyz
  'x, y, z'

loop_
  _atom_site_type_symbol
  _atom_site_label
  _atom_site_symmetry_multiplicity
  _atom_site_fract_x
  _atom_site_fract_y
  _atom_site_fract_z
  _atom_site_occupancy
  Sc  Sc1       1.0  0.2500001774258471  0.24999998652014593  0.24999986971297686  1.0000
  Sc  Sc2       1.0  0.7499999005443233  0.7500003495215583  0.7499997937053483  1.0000
  Pd  Pd1       1.0  0.9999999861054764  4.817166807997522e-08  0.9999999772425704  1.0000
  F   F1        1.0  0.2672704476798144  0.2672702344567852  0.7327296344275226  1.0000
  F   F2        1.0  0.7327296035360584  0.7327297276810177  0.26727037353723243  1.0000
  F   F3        1.0  0.7327294865129779  0.2672701968005216  0.26727049617361665  1.0000
  F   F4        1.0  0.26727038570499534  0.7327295497117177  0.7327298364636269  1.0000
  F   F5        1.0  0.26727036961187645  0.7327298422071814  0.26727028330175706  1.0000
  F   F6        1.0  0.7327296286947181  0.2672700969917325  0.7327297063985108  1.0000
