data_image0
_chemical_formula_structural       Sc2PbBr6
_chemical_formula_sum              "Sc2 Pb1 Br6"
_cell_length_a       7.334211089928037
_cell_length_b       7.334211288626141
_cell_length_c       7.33421148159007
_cell_angle_alpha    60.000000340798174
_cell_angle_beta     60.00000095795665
_cell_angle_gamma    60.000000159020914

_space_group_name_H-M_alt    "P 1"
_space_group_IT_number       1

loop_
  _space_group_symop_operation_xyz
  'x, y, z'

loop_
  _atom_site_type_symbol
  _atom_site_label
  _atom_site_symmetry_multiplicity
  _atom_site_fract_x
  _atom_site_fract_y
  _atom_site_fract_z
  _atom_site_occupancy
  Sc  Sc1       1.0  0.24999990910939981  0.2500001042005223  0.2500000593018255  1.0000
  Sc  Sc2       1.0  0.7500000100250895  0.7500000738049039  0.7499998109966747  1.0000
  Pb  Pb1       1.0  0.9999999714697355  1.0019440476112311e-08  7.891938421462658e-09  1.0000
  Br  Br1       1.0  0.2662268907807543  0.26622681143583854  0.7337731293239275  1.0000
  Br  Br2       1.0  0.7337731966922263  0.7337730977146061  0.2662269139453969  1.0000
  Br  Br3       1.0  0.7337731416552294  0.2662268157009213  0.266226902396706  1.0000
  Br  Br4       1.0  0.2662268931148037  0.7337731051388706  0.7337731722872025  1.0000
  Br  Br5       1.0  0.2662268561012625  0.7337730784844699  0.2662268838919976  1.0000
  Br  Br6       1.0  0.7337731478000726  0.2662268924525235  0.7337731170944235  1.0000
