data_image0
_chemical_formula_structural       Sc2PF6
_chemical_formula_sum              "Sc2 P1 F6"
_cell_length_a       5.443837530681468
_cell_length_b       5.443837303038023
_cell_length_c       5.443837711181413
_cell_angle_alpha    59.99999906542788
_cell_angle_beta     60.00000095068435
_cell_angle_gamma    59.99999642011959

_space_group_name_H-M_alt    "P 1"
_space_group_IT_number       1

loop_
  _space_group_symop_operation_xyz
  'x, y, z'

loop_
  _atom_site_type_symbol
  _atom_site_label
  _atom_site_symmetry_multiplicity
  _atom_site_fract_x
  _atom_site_fract_y
  _atom_site_fract_z
  _atom_site_occupancy
  Sc  Sc1       1.0  0.2500048883035437  0.25000305131873596  0.25000215663266684  1.0000
  Sc  Sc2       1.0  0.7499975922383707  0.7499984629909726  0.7500161267557307  1.0000
  P   P1        1.0  0.9999996730322739  0.9999996827806724  0.9999975777060487  1.0000
  F   F1        1.0  0.26637810498049397  0.26637665665339416  0.7336203336989615  1.0000
  F   F2        1.0  0.7336213705964594  0.7336228575996326  0.266373169976161  1.0000
  F   F3        1.0  0.7336213525532407  0.26637977465201546  0.26637332740582836  1.0000
  F   F4        1.0  0.26637679546617354  0.7336208014983315  0.7336218888672829  1.0000
  F   F5        1.0  0.2663797929179061  0.7336213188764286  0.26637327823056195  1.0000
  F   F6        1.0  0.7336204582082807  0.26637738320516874  0.7336221872375505  1.0000
