data_image0
_chemical_formula_structural       Sc2PtF6
_chemical_formula_sum              "Sc2 Pt1 F6"
_cell_length_a       5.440887256036953
_cell_length_b       5.440886200342568
_cell_length_c       5.44088816313623
_cell_angle_alpha    59.999981186641335
_cell_angle_beta     59.99999275829598
_cell_angle_gamma    59.99999499944242

_space_group_name_H-M_alt    "P 1"
_space_group_IT_number       1

loop_
  _space_group_symop_operation_xyz
  'x, y, z'

loop_
  _atom_site_type_symbol
  _atom_site_label
  _atom_site_symmetry_multiplicity
  _atom_site_fract_x
  _atom_site_fract_y
  _atom_site_fract_z
  _atom_site_occupancy
  Sc  Sc1       1.0  0.25000266219246253  0.2499954943984974  0.2500001718193367  1.0000
  Sc  Sc2       1.0  0.7499991251470413  0.7500046060194427  0.749999136067791  1.0000
  Pt  Pt1       1.0  0.9999997777433649  0.9999998581867846  2.500385388046255e-07  1.0000
  F   F1        1.0  0.2599467926888704  0.25994357153450937  0.7400553425949513  1.0000
  F   F2        1.0  0.7400525405175128  0.7400566076683391  0.2599444637406021  1.0000
  F   F3        1.0  0.7400538650135677  0.2599438618072277  0.25994747989674727  1.0000
  F   F4        1.0  0.2599453439024164  0.7400562318574767  0.7400526868260798  1.0000
  F   F5        1.0  0.259945665543456  0.7400564507517101  0.2599455936138665  1.0000
  F   F6        1.0  0.7400541196909242  0.25994332101958656  0.7400549752218196  1.0000
