data_image0
_chemical_formula_structural       Sc2PbF6
_chemical_formula_sum              "Sc2 Pb1 F6"
_cell_length_a       5.7215895024240835
_cell_length_b       5.72158829052461
_cell_length_c       5.721588274528732
_cell_angle_alpha    59.999997881877015
_cell_angle_beta     60.00000163864675
_cell_angle_gamma    60.00000081367856

_space_group_name_H-M_alt    "P 1"
_space_group_IT_number       1

loop_
  _space_group_symop_operation_xyz
  'x, y, z'

loop_
  _atom_site_type_symbol
  _atom_site_label
  _atom_site_symmetry_multiplicity
  _atom_site_fract_x
  _atom_site_fract_y
  _atom_site_fract_z
  _atom_site_occupancy
  Sc  Sc1       1.0  0.24999996291030674  0.2500001962701394  0.2500000322334805  1.0000
  Sc  Sc2       1.0  0.7499992295982267  0.7500002291949475  0.7500004714965406  1.0000
  Pb  Pb1       1.0  0.9999999269794684  1.9265108360397837e-08  7.652283399253601e-09  1.0000
  F   F1        1.0  0.2702106380986104  0.2702101416219875  0.7297895814485245  1.0000
  F   F2        1.0  0.729789679916945  0.7297895046763944  0.27021027197106495  1.0000
  F   F3        1.0  0.7297894241334417  0.270210385422382  0.27021043724780774  1.0000
  F   F4        1.0  0.2702107355851229  0.7297895541338136  0.7297895217202498  1.0000
  F   F5        1.0  0.2702107993545555  0.7297895839953298  0.27021006551139226  1.0000
  F   F6        1.0  0.7297896036433741  0.2702102977655433  0.729789596225961  1.0000
