data_image0
_chemical_formula_structural       Sc2PtCl6
_chemical_formula_sum              "Sc2 Pt1 Cl6"
_cell_length_a       6.888387125725379
_cell_length_b       6.888387149568882
_cell_length_c       6.8883870286279025
_cell_angle_alpha    60.00000052198633
_cell_angle_beta     59.999998706768245
_cell_angle_gamma    60.000000538013545

_space_group_name_H-M_alt    "P 1"
_space_group_IT_number       1

loop_
  _space_group_symop_operation_xyz
  'x, y, z'

loop_
  _atom_site_type_symbol
  _atom_site_label
  _atom_site_symmetry_multiplicity
  _atom_site_fract_x
  _atom_site_fract_y
  _atom_site_fract_z
  _atom_site_occupancy
  Sc  Sc1       1.0  0.24999983310387622  0.2500003291578566  0.25000005126893826  1.0000
  Sc  Sc2       1.0  0.7499999943465969  0.7499999046807435  0.7500001326627881  1.0000
  Pt  Pt1       1.0  2.043810417054936e-08  0.9999999537723915  0.9999999795052227  1.0000
  Cl  Cl1       1.0  0.2442046426856474  0.24420470218279414  0.7557952053681912  1.0000
  Cl  Cl2       1.0  0.75579538065969  0.7557952507341849  0.24420469734364955  1.0000
  Cl  Cl3       1.0  0.7557954358224854  0.24420472629096174  0.24420454460056812  1.0000
  Cl  Cl4       1.0  0.2442047073362035  0.755795214180124  0.7557953973375364  1.0000
  Cl  Cl5       1.0  0.24420472577349164  0.7557952715711853  0.24420466259488285  1.0000
  Cl  Cl6       1.0  0.7557952669249085  0.24420464756407997  0.7557953158828439  1.0000
