data_image0
_chemical_formula_structural       Sc2PCl6
_chemical_formula_sum              "Sc2 P1 Cl6"
_cell_length_a       6.230668887237189
_cell_length_b       6.2306689177545715
_cell_length_c       6.230668820181035
_cell_angle_alpha    59.99999965669215
_cell_angle_beta     59.999999294915604
_cell_angle_gamma    60.00000015827005

_space_group_name_H-M_alt    "P 1"
_space_group_IT_number       1

loop_
  _space_group_symop_operation_xyz
  'x, y, z'

loop_
  _atom_site_type_symbol
  _atom_site_label
  _atom_site_symmetry_multiplicity
  _atom_site_fract_x
  _atom_site_fract_y
  _atom_site_fract_z
  _atom_site_occupancy
  Sc  Sc1       1.0  0.24999994220817376  0.2499999950593966  0.25000006302868844  1.0000
  Sc  Sc2       1.0  0.7500000626235832  0.7500000166289372  0.7499998178264665  1.0000
  P   P1        1.0  0.9999999901909297  0.9999999960686566  4.699431036383092e-08  1.0000
  Cl  Cl1       1.0  0.2613634004848158  0.2613633626394565  0.7386366386859635  1.0000
  Cl  Cl2       1.0  0.7386366665160541  0.7386365959757443  0.26136341898214877  1.0000
  Cl  Cl3       1.0  0.7386365554526976  0.261363381720677  0.2613634723858242  1.0000
  Cl  Cl4       1.0  0.26136339509191764  0.7386366260363126  0.7386365659757049  1.0000
  Cl  Cl5       1.0  0.2613633758810537  0.7386365599844084  0.261363448080866  1.0000
  Cl  Cl6       1.0  0.73863661193417  0.26136346939496896  0.7386365287348818  1.0000
