data_image0
_chemical_formula_structural       Sc2PbCl6
_chemical_formula_sum              "Sc2 Pb1 Cl6"
_cell_length_a       7.049203672273893
_cell_length_b       7.049204199252368
_cell_length_c       7.049203845463086
_cell_angle_alpha    59.99999971151029
_cell_angle_beta     59.999999463725935
_cell_angle_gamma    59.999998913209794

_space_group_name_H-M_alt    "P 1"
_space_group_IT_number       1

loop_
  _space_group_symop_operation_xyz
  'x, y, z'

loop_
  _atom_site_type_symbol
  _atom_site_label
  _atom_site_symmetry_multiplicity
  _atom_site_fract_x
  _atom_site_fract_y
  _atom_site_fract_z
  _atom_site_occupancy
  Sc  Sc1       1.0  0.2499997564824452  0.2500001892480056  0.2499999554949457  1.0000
  Sc  Sc2       1.0  0.7499999374204733  0.7500000135060935  0.7500000607094248  1.0000
  Pb  Pb1       1.0  9.166890745762874e-09  0.9999999774135032  0.9999999627332059  1.0000
  Cl  Cl1       1.0  0.26590043771573696  0.2659003818305343  0.7340996300679846  1.0000
  Cl  Cl2       1.0  0.7340996596010158  0.7340995394610451  0.2659004131139284  1.0000
  Cl  Cl3       1.0  0.7340996767828876  0.26590038831754237  0.26590036862509825  1.0000
  Cl  Cl4       1.0  0.26590038580245323  0.7340996076832217  0.7340996815213257  1.0000
  Cl  Cl5       1.0  0.2659004240079185  0.7340995333816298  0.26590037204899497  1.0000
  Cl  Cl6       1.0  0.7340997335536217  0.2659003496866468  0.734099562238782  1.0000
