data_image0
_chemical_formula_structural       Sc2RuF6
_chemical_formula_sum              "Sc2 Ru1 F6"
_cell_length_a       5.326821270776756
_cell_length_b       5.326821438058161
_cell_length_c       5.326821355698176
_cell_angle_alpha    60.00000268648557
_cell_angle_beta     60.000002489535404
_cell_angle_gamma    60.000002014623725

_space_group_name_H-M_alt    "P 1"
_space_group_IT_number       1

loop_
  _space_group_symop_operation_xyz
  'x, y, z'

loop_
  _atom_site_type_symbol
  _atom_site_label
  _atom_site_symmetry_multiplicity
  _atom_site_fract_x
  _atom_site_fract_y
  _atom_site_fract_z
  _atom_site_occupancy
  Sc  Sc1       1.0  0.24999964858837614  0.2500004437113904  0.25000002976862634  1.0000
  Sc  Sc2       1.0  0.7500000647399923  0.7500001332489568  0.7499996181375912  1.0000
  Ru  Ru1       1.0  1.114665896418795e-08  0.9999999080318459  2.9146993299241147e-08  1.0000
  F   F1        1.0  0.2707058637000951  0.2707058017679555  0.7292940623033893  1.0000
  F   F2        1.0  0.7292942920970737  0.7292938899989125  0.2707060641541897  1.0000
  F   F3        1.0  0.7292942185915118  0.2707058042589151  0.27070581633572743  1.0000
  F   F4        1.0  0.27070589772470965  0.7292940254601836  0.7292942308495368  1.0000
  F   F5        1.0  0.2707056607625414  0.7292939986880577  0.2707061171418787  1.0000
  F   F6        1.0  0.7292943564062374  0.2707059528888467  0.7292940275711493  1.0000
