data_image0
_chemical_formula_structural       Sc2RhF6
_chemical_formula_sum              "Sc2 Rh1 F6"
_cell_length_a       5.432067520994367
_cell_length_b       5.4320674663573785
_cell_length_c       5.432067156394568
_cell_angle_alpha    59.99999760221939
_cell_angle_beta     60.00000035580899
_cell_angle_gamma    60.00000278718515

_space_group_name_H-M_alt    "P 1"
_space_group_IT_number       1

loop_
  _space_group_symop_operation_xyz
  'x, y, z'

loop_
  _atom_site_type_symbol
  _atom_site_label
  _atom_site_symmetry_multiplicity
  _atom_site_fract_x
  _atom_site_fract_y
  _atom_site_fract_z
  _atom_site_occupancy
  Sc  Sc1       1.0  0.25000001681510164  0.25000046351464916  0.24999988845748314  1.0000
  Sc  Sc2       1.0  0.7500001322620723  0.7499995890730172  0.7500005215177487  1.0000
  Rh  Rh1       1.0  0.9999999518602014  0.9999999977453407  2.7038149498788918e-08  1.0000
  F   F1        1.0  0.2582465929521294  0.2582469886017738  0.7417531113608576  1.0000
  F   F2        1.0  0.7417534069201137  0.7417528993959556  0.25824673203033255  1.0000
  F   F3        1.0  0.7417530196393117  0.2582472600715949  0.25824644826760496  1.0000
  F   F4        1.0  0.2582467497902006  0.7417530450376653  0.7417533349257315  1.0000
  F   F5        1.0  0.2582469683801311  0.7417530606105556  0.2582466218501599  1.0000
  F   F6        1.0  0.7417531826128989  0.2582467056357009  0.7417532657658088  1.0000
