data_image0
_chemical_formula_structural       Sc2RuF6
_chemical_formula_sum              "Sc2 Ru1 F6"
_cell_length_a       5.327089842322268
_cell_length_b       5.327088612708999
_cell_length_c       5.327090346649458
_cell_angle_alpha    59.99999927308982
_cell_angle_beta     59.99999751065809
_cell_angle_gamma    59.9999982842406

_space_group_name_H-M_alt    "P 1"
_space_group_IT_number       1

loop_
  _space_group_symop_operation_xyz
  'x, y, z'

loop_
  _atom_site_type_symbol
  _atom_site_label
  _atom_site_symmetry_multiplicity
  _atom_site_fract_x
  _atom_site_fract_y
  _atom_site_fract_z
  _atom_site_occupancy
  Sc  Sc1       1.0  0.24999983255838062  0.24999974783733547  0.25000017304582384  1.0000
  Sc  Sc2       1.0  0.7499997668443734  0.7499996780397657  0.7500001184818785  1.0000
  Ru  Ru1       1.0  1.0540096468377523e-07  8.046811056745105e-08  0.9999999446094164  1.0000
  F   F1        1.0  0.27072186371904117  0.27072199836127986  0.7292780557787835  1.0000
  F   F2        1.0  0.7292781927915875  0.7292783126650002  0.27072184620006756  1.0000
  F   F3        1.0  0.7292781437842393  0.27072178777365785  0.2707219276228244  1.0000
  F   F4        1.0  0.2707220086532281  0.7292782289692767  0.729278067902666  1.0000
  F   F5        1.0  0.2707217957669938  0.7292783710128591  0.2707218069141948  1.0000
  F   F6        1.0  0.7292782983179754  0.2707217882735654  0.7292781033402705  1.0000
