data_image0
_chemical_formula_structural       Sc2ReBr6
_chemical_formula_sum              "Sc2 Re1 Br6"
_cell_length_a       7.0794802549273985
_cell_length_b       7.079480283812425
_cell_length_c       7.079480125897751
_cell_angle_alpha    60.00000123390578
_cell_angle_beta     60.00000145919551
_cell_angle_gamma    60.00000218205578

_space_group_name_H-M_alt    "P 1"
_space_group_IT_number       1

loop_
  _space_group_symop_operation_xyz
  'x, y, z'

loop_
  _atom_site_type_symbol
  _atom_site_label
  _atom_site_symmetry_multiplicity
  _atom_site_fract_x
  _atom_site_fract_y
  _atom_site_fract_z
  _atom_site_occupancy
  Sc  Sc1       1.0  0.24999989320612465  0.2499998703691812  0.24999998616020017  1.0000
  Sc  Sc2       1.0  0.750000152566906  0.7500000418757088  0.7499999459200499  1.0000
  Re  Re1       1.0  0.9999999988466716  3.459985152674501e-09  0.9999999861338738  1.0000
  Br  Br1       1.0  0.24659880597315773  0.2465988150530251  0.7534012462628988  1.0000
  Br  Br2       1.0  0.7534011690370203  0.7534011871514792  0.24659883018507792  1.0000
  Br  Br3       1.0  0.7534011934027353  0.24659882684496282  0.2465988159291739  1.0000
  Br  Br4       1.0  0.24659879472085341  0.7534012289893123  0.7534011692333555  1.0000
  Br  Br5       1.0  0.2465987560863695  0.7534012779491466  0.24659885003141058  1.0000
  Br  Br6       1.0  0.7534012396327936  0.24659875020524688  0.7534011649487357  1.0000
