data_image0
_chemical_formula_structural       Sc2RhCl6
_chemical_formula_sum              "Sc2 Rh1 Cl6"
_cell_length_a       6.748259532335928
_cell_length_b       6.7482594652213175
_cell_length_c       6.748259422550523
_cell_angle_alpha    59.99999903557212
_cell_angle_beta     59.99999867931945
_cell_angle_gamma    59.99999920609144

_space_group_name_H-M_alt    "P 1"
_space_group_IT_number       1

loop_
  _space_group_symop_operation_xyz
  'x, y, z'

loop_
  _atom_site_type_symbol
  _atom_site_label
  _atom_site_symmetry_multiplicity
  _atom_site_fract_x
  _atom_site_fract_y
  _atom_site_fract_z
  _atom_site_occupancy
  Sc  Sc1       1.0  0.2500002565274823  0.24999976094019943  0.2499998253064923  1.0000
  Sc  Sc2       1.0  0.7500001709167481  0.7499994207533656  0.7499998366899467  1.0000
  Rh  Rh1       1.0  0.9999999806410141  5.807695489986018e-08  3.1024377632520025e-08  1.0000
  Cl  Cl1       1.0  0.24662793039473804  0.24662823990902538  0.7533719740200212  1.0000
  Cl  Cl2       1.0  0.753371835143471  0.7533720035038725  0.24662820973733532  1.0000
  Cl  Cl3       1.0  0.7533719209285947  0.24662817113780694  0.2466280291977528  1.0000
  Cl  Cl4       1.0  0.24662812632282974  0.7533719252677992  0.7533719256835065  1.0000
  Cl  Cl5       1.0  0.24662799188362414  0.7533720028612982  0.24662820792306173  1.0000
  Cl  Cl6       1.0  0.7533717915751752  0.24662840752284526  0.7533719708183272  1.0000
