data_image0
_chemical_formula_structural       Sc2RhCl6
_chemical_formula_sum              "Sc2 Rh1 Cl6"
_cell_length_a       6.747927148768495
_cell_length_b       6.747927078290076
_cell_length_c       6.747926977391809
_cell_angle_alpha    59.999999507597764
_cell_angle_beta     59.99999956382069
_cell_angle_gamma    60.000000943553005

_space_group_name_H-M_alt    "P 1"
_space_group_IT_number       1

loop_
  _space_group_symop_operation_xyz
  'x, y, z'

loop_
  _atom_site_type_symbol
  _atom_site_label
  _atom_site_symmetry_multiplicity
  _atom_site_fract_x
  _atom_site_fract_y
  _atom_site_fract_z
  _atom_site_occupancy
  Sc  Sc1       1.0  0.24999975841677496  0.2500001160124056  0.2500000720398218  1.0000
  Sc  Sc2       1.0  0.7500000595521791  0.7500000485631787  0.7500003664187526  1.0000
  Rh  Rh1       1.0  1.2894752075831708e-08  0.9999999818500578  2.189277096292503e-08  1.0000
  Cl  Cl1       1.0  0.24664019703861034  0.24664019545227778  0.7533598088138854  1.0000
  Cl  Cl2       1.0  0.7533598753317738  0.7533597295440765  0.24663997610922828  1.0000
  Cl  Cl3       1.0  0.7533598836583626  0.24664025068432993  0.24664015662338382  1.0000
  Cl  Cl4       1.0  0.24664014809115864  0.7533597705067171  0.7533597309232358  1.0000
  Cl  Cl5       1.0  0.24664027565020621  0.7533597410627733  0.24664016023244476  1.0000
  Cl  Cl6       1.0  0.7533597796260567  0.2466401530786783  0.7533597168342651  1.0000
