data_image0
_chemical_formula_structural       Sc2ReCl6
_chemical_formula_sum              "Sc2 Re1 Cl6"
_cell_length_a       6.751938833758456
_cell_length_b       6.751939057900748
_cell_length_c       6.751938735801336
_cell_angle_alpha    60.000002187917836
_cell_angle_beta     60.000001084633645
_cell_angle_gamma    60.00000151645926

_space_group_name_H-M_alt    "P 1"
_space_group_IT_number       1

loop_
  _space_group_symop_operation_xyz
  'x, y, z'

loop_
  _atom_site_type_symbol
  _atom_site_label
  _atom_site_symmetry_multiplicity
  _atom_site_fract_x
  _atom_site_fract_y
  _atom_site_fract_z
  _atom_site_occupancy
  Sc  Sc1       1.0  0.250000141226893  0.2499998535597904  0.2499997401033202  1.0000
  Sc  Sc2       1.0  0.7500001076891374  0.7499999289042667  0.7499999287971056  1.0000
  Re  Re1       1.0  0.9999999557073004  5.0789640489577564e-08  4.118321237285319e-08  1.0000
  Cl  Cl1       1.0  0.24740786790611588  0.2474080278967505  0.7525921616274378  1.0000
  Cl  Cl2       1.0  0.7525920091693962  0.7525921518148525  0.24740795665897505  1.0000
  Cl  Cl3       1.0  0.7525920862778  0.2474078889238516  0.24740813447882207  1.0000
  Cl  Cl4       1.0  0.24740793918893528  0.7525921021405159  0.7525919728334188  1.0000
  Cl  Cl5       1.0  0.2474078624543734  0.752592087104889  0.24740805253206943  1.0000
  Cl  Cl6       1.0  0.7525920278047  0.2474079094012257  0.7525920145081456  1.0000
