data_image0
_chemical_formula_structural       Sc2RuCl6
_chemical_formula_sum              "Sc2 Ru1 Cl6"
_cell_length_a       6.777436095414591
_cell_length_b       6.777436016362143
_cell_length_c       6.777436051374722
_cell_angle_alpha    60.00000072523846
_cell_angle_beta     59.999999405339686
_cell_angle_gamma    59.999999673008325

_space_group_name_H-M_alt    "P 1"
_space_group_IT_number       1

loop_
  _space_group_symop_operation_xyz
  'x, y, z'

loop_
  _atom_site_type_symbol
  _atom_site_label
  _atom_site_symmetry_multiplicity
  _atom_site_fract_x
  _atom_site_fract_y
  _atom_site_fract_z
  _atom_site_occupancy
  Sc  Sc1       1.0  0.24999999485098703  0.2500001099287981  0.2500000428408856  1.0000
  Sc  Sc2       1.0  0.7500000657363242  0.749999973789317  0.7499999546023388  1.0000
  Ru  Ru1       1.0  1.443900244328834e-08  0.9999999873503573  0.9999999681201511  1.0000
  Cl  Cl1       1.0  0.24827968490478408  0.24827970557553317  0.7517203061948265  1.0000
  Cl  Cl2       1.0  0.7517203041785414  0.751720285980903  0.2482797317676717  1.0000
  Cl  Cl3       1.0  0.7517202080445582  0.24827978129837283  0.2482796352329026  1.0000
  Cl  Cl4       1.0  0.2482796990524324  0.7517202211006135  0.7517203866595406  1.0000
  Cl  Cl5       1.0  0.24827962857054792  0.7517202813084941  0.2482797316212387  1.0000
  Cl  Cl6       1.0  0.751720418578835  0.24827964338554628  0.7517202236858584  1.0000
