data_image0
_chemical_formula_structural       Sc2RuBr6
_chemical_formula_sum              "Sc2 Ru1 Br6"
_cell_length_a       7.047987583427999
_cell_length_b       7.047987552673633
_cell_length_c       7.047987690249965
_cell_angle_alpha    59.99999962264432
_cell_angle_beta     59.99999904137221
_cell_angle_gamma    59.99999965390117

_space_group_name_H-M_alt    "P 1"
_space_group_IT_number       1

loop_
  _space_group_symop_operation_xyz
  'x, y, z'

loop_
  _atom_site_type_symbol
  _atom_site_label
  _atom_site_symmetry_multiplicity
  _atom_site_fract_x
  _atom_site_fract_y
  _atom_site_fract_z
  _atom_site_occupancy
  Sc  Sc1       1.0  0.25000006853099166  0.25000002171151736  0.2499999098105013  1.0000
  Sc  Sc2       1.0  0.7500000633583982  0.7499998774604884  0.7499999057365822  1.0000
  Ru  Ru1       1.0  0.9999999896900963  0.9999999965245544  2.5337655798266098e-08  1.0000
  Br  Br1       1.0  0.24741839803939186  0.24741848567403252  0.75258155633576  1.0000
  Br  Br2       1.0  0.7525815309086297  0.7525815455649076  0.24741850747524666  1.0000
  Br  Br3       1.0  0.7525815091275925  0.24741848663369737  0.24741845072052865  1.0000
  Br  Br4       1.0  0.2474184668524527  0.7525815411297972  0.7525816040817911  1.0000
  Br  Br5       1.0  0.2474184359586018  0.7525815474087586  0.24741849090231752  1.0000
  Br  Br6       1.0  0.7525815403025383  0.24741849425651868  0.7525815553897188  1.0000
