data_image0
_chemical_formula_structural       Sc2RuI6
_chemical_formula_sum              "Sc2 Ru1 I6"
_cell_length_a       7.630346285864472
_cell_length_b       7.630346190702029
_cell_length_c       7.630346187291395
_cell_angle_alpha    59.99999970554126
_cell_angle_beta     60.000000403738944
_cell_angle_gamma    59.99999980159655

_space_group_name_H-M_alt    "P 1"
_space_group_IT_number       1

loop_
  _space_group_symop_operation_xyz
  'x, y, z'

loop_
  _atom_site_type_symbol
  _atom_site_label
  _atom_site_symmetry_multiplicity
  _atom_site_fract_x
  _atom_site_fract_y
  _atom_site_fract_z
  _atom_site_occupancy
  Sc  Sc1       1.0  0.24999997056718745  0.24999997509043478  0.2500000391700898  1.0000
  Sc  Sc2       1.0  0.7499999749217834  0.7500000488638039  0.7499999520232999  1.0000
  Ru  Ru1       1.0  0.9999999972330406  1.2840779147760467e-08  0.999999992341977  1.0000
  I   I1        1.0  0.24877534048248176  0.24877532098758762  0.7512246860313837  1.0000
  I   I2        1.0  0.7512246629708861  0.7512246788901901  0.24877534064029921  1.0000
  I   I3        1.0  0.7512246877061858  0.2487753111103921  0.24877533978365535  1.0000
  I   I4        1.0  0.2487753603672673  0.7512246502450484  0.7512246458330142  1.0000
  I   I5        1.0  0.24877530719294966  0.751224692089093  0.24877533977682542  1.0000
  I   I6        1.0  0.7512247002652864  0.2487753093937822  0.7512246631209701  1.0000
