data_image0
_chemical_formula_structural       Sc2RhI6
_chemical_formula_sum              "Sc2 Rh1 I6"
_cell_length_a       7.610117130683767
_cell_length_b       7.61011708219274
_cell_length_c       7.610117087588093
_cell_angle_alpha    60.00000029099992
_cell_angle_beta     60.00000019331934
_cell_angle_gamma    60.00000032538789

_space_group_name_H-M_alt    "P 1"
_space_group_IT_number       1

loop_
  _space_group_symop_operation_xyz
  'x, y, z'

loop_
  _atom_site_type_symbol
  _atom_site_label
  _atom_site_symmetry_multiplicity
  _atom_site_fract_x
  _atom_site_fract_y
  _atom_site_fract_z
  _atom_site_occupancy
  Sc  Sc1       1.0  0.249999997382753  0.25000001383232634  0.2499999695325794  1.0000
  Sc  Sc2       1.0  0.7499999893897361  0.7500000270127033  0.7500000289125569  1.0000
  Rh  Rh1       1.0  2.194726635354068e-08  1.6093640264721165e-08  0.9999999612689433  1.0000
  I   I1        1.0  0.24735024628474203  0.2473502717557932  0.7526497353254851  1.0000
  I   I2        1.0  0.7526497396305033  0.7526497079334034  0.24735026653134481  1.0000
  I   I3        1.0  0.7526497662395321  0.24735026104491098  0.2473502517050413  1.0000
  I   I4        1.0  0.24735023466486059  0.7526497283004698  0.7526497772503296  1.0000
  I   I5        1.0  0.2473502586955497  0.7526497426043007  0.24735026061913032  1.0000
  I   I6        1.0  0.752649746944894  0.24735023708489565  0.7526497471435831  1.0000
