data_image0
_chemical_formula_structural       Sc2RuCl6
_chemical_formula_sum              "Sc2 Ru1 Cl6"
_cell_length_a       6.777549011446676
_cell_length_b       6.777548948176474
_cell_length_c       6.77754890981997
_cell_angle_alpha    60.00000190590808
_cell_angle_beta     60.00000094820113
_cell_angle_gamma    60.00000316352715

_space_group_name_H-M_alt    "P 1"
_space_group_IT_number       1

loop_
  _space_group_symop_operation_xyz
  'x, y, z'

loop_
  _atom_site_type_symbol
  _atom_site_label
  _atom_site_symmetry_multiplicity
  _atom_site_fract_x
  _atom_site_fract_y
  _atom_site_fract_z
  _atom_site_occupancy
  Sc  Sc1       1.0  0.25000008994727135  0.24999960964185286  0.2500001712881083  1.0000
  Sc  Sc2       1.0  0.7500000698157714  0.7500000270073901  0.7500001623824112  1.0000
  Ru  Ru1       1.0  1.934320790017724e-08  0.9999999981929387  0.9999999794282495  1.0000
  Cl  Cl1       1.0  0.24827658228567143  0.24827649671445465  0.7517234852562665  1.0000
  Cl  Cl2       1.0  0.7517232836558623  0.7517236278414057  0.24827649464172377  1.0000
  Cl  Cl3       1.0  0.7517234885593432  0.24827663313692916  0.24827641443036869  1.0000
  Cl  Cl4       1.0  0.2482765334181781  0.7517234986471792  0.7517233731760299  1.0000
  Cl  Cl5       1.0  0.24827651133876064  0.7517235222255689  0.24827649282436712  1.0000
  Cl  Cl6       1.0  0.7517234229580284  0.24827659148792286  0.751723422906148  1.0000
