data_image0
_chemical_formula_structural       Sc2RhBr6
_chemical_formula_sum              "Sc2 Rh1 Br6"
_cell_length_a       7.013806718559036
_cell_length_b       7.01380651521982
_cell_length_c       7.013806480532676
_cell_angle_alpha    59.99999945151337
_cell_angle_beta     59.99999991050391
_cell_angle_gamma    59.99999876328044

_space_group_name_H-M_alt    "P 1"
_space_group_IT_number       1

loop_
  _space_group_symop_operation_xyz
  'x, y, z'

loop_
  _atom_site_type_symbol
  _atom_site_label
  _atom_site_symmetry_multiplicity
  _atom_site_fract_x
  _atom_site_fract_y
  _atom_site_fract_z
  _atom_site_occupancy
  Sc  Sc1       1.0  0.2500000930417699  0.24999986364410895  0.250000083568479  1.0000
  Sc  Sc2       1.0  0.7500000163722216  0.7499999593787219  0.7499998585280644  1.0000
  Rh  Rh1       1.0  7.932025961603654e-09  1.5715722946143972e-08  0.9999999639382169  1.0000
  Br  Br1       1.0  0.24605192483163732  0.24605193786889884  0.7539480592926242  1.0000
  Br  Br2       1.0  0.7539480540032669  0.7539481139050103  0.24605197344233762  1.0000
  Br  Br3       1.0  0.7539480674455374  0.24605193256846877  0.24605190729822277  1.0000
  Br  Br4       1.0  0.24605188978740927  0.7539481296825891  0.7539480839490859  1.0000
  Br  Br5       1.0  0.24605188545615267  0.7539480773242655  0.24605193924043087  1.0000
  Br  Br6       1.0  0.7539480640445004  0.24605195873392074  0.7539481259998335  1.0000
