data_image0
_chemical_formula_structural       Sc2ReI6
_chemical_formula_sum              "Sc2 Re1 I6"
_cell_length_a       7.724196827321695
_cell_length_b       7.724196820921961
_cell_length_c       7.724196824096411
_cell_angle_alpha    60.000000030599644
_cell_angle_beta     59.9999996953725
_cell_angle_gamma    59.99999973596009

_space_group_name_H-M_alt    "P 1"
_space_group_IT_number       1

loop_
  _space_group_symop_operation_xyz
  'x, y, z'

loop_
  _atom_site_type_symbol
  _atom_site_label
  _atom_site_symmetry_multiplicity
  _atom_site_fract_x
  _atom_site_fract_y
  _atom_site_fract_z
  _atom_site_occupancy
  Sc  Sc1       1.0  0.2499999798012525  0.25000002190523835  0.25000001648829656  1.0000
  Sc  Sc2       1.0  0.7500000036254698  0.7500000165622662  0.7499999746098425  1.0000
  Re  Re1       1.0  0.9999999725785852  0.9999999746304784  9.630564951236066e-08  1.0000
  I   I1        1.0  0.2478712836323775  0.24787128363180727  0.7521287088506675  1.0000
  I   I2        1.0  0.7521287359598705  0.7521287136102242  0.2478712834828123  1.0000
  I   I3        1.0  0.752128748510755  0.24787124867635632  0.2478712802217441  1.0000
  I   I4        1.0  0.24787133030549194  0.7521286740427048  0.7521286679759017  1.0000
  I   I5        1.0  0.24787125223860695  0.7521287381926954  0.2478712875708879  1.0000
  I   I6        1.0  0.752128700745757  0.2478713288155211  0.7521286785854147  1.0000
