data_image0
_chemical_formula_structural       Sc2RhI6
_chemical_formula_sum              "Sc2 Rh1 I6"
_cell_length_a       7.6122367245937355
_cell_length_b       7.6122367599609815
_cell_length_c       7.612236809576814
_cell_angle_alpha    59.99999905251552
_cell_angle_beta     59.99999913341826
_cell_angle_gamma    60.00000040248395

_space_group_name_H-M_alt    "P 1"
_space_group_IT_number       1

loop_
  _space_group_symop_operation_xyz
  'x, y, z'

loop_
  _atom_site_type_symbol
  _atom_site_label
  _atom_site_symmetry_multiplicity
  _atom_site_fract_x
  _atom_site_fract_y
  _atom_site_fract_z
  _atom_site_occupancy
  Sc  Sc1       1.0  0.2500000014518104  0.2500000262736761  0.24999998187221098  1.0000
  Sc  Sc2       1.0  0.7499999889130872  0.7499999340185972  0.7499999876424662  1.0000
  Rh  Rh1       1.0  0.9999999957253447  0.9999999855197567  3.5650935791131044e-08  1.0000
  I   I1        1.0  0.2473293748847267  0.24732937709306943  0.7526706230828468  1.0000
  I   I2        1.0  0.7526706066074531  0.7526706507736712  0.24732938670569413  1.0000
  I   I3        1.0  0.7526706171077323  0.24732940986404678  0.24732936556032886  1.0000
  I   I4        1.0  0.24732943525026682  0.7526705874332925  0.7526705964928423  1.0000
  I   I5        1.0  0.24732938288960923  0.7526706019387861  0.24732940281384314  1.0000
  I   I6        1.0  0.7526706011000661  0.2473294275368704  0.7526706193719096  1.0000
