data_image0
_chemical_formula_structural       Sc2SCl6
_chemical_formula_sum              "Sc2 S1 Cl6"
_cell_length_a       6.971013204674579
_cell_length_b       6.9710131789361744
_cell_length_c       6.971013545981423
_cell_angle_alpha    60.000000406759604
_cell_angle_beta     59.9999994176464
_cell_angle_gamma    60.00000339835742

_space_group_name_H-M_alt    "P 1"
_space_group_IT_number       1

loop_
  _space_group_symop_operation_xyz
  'x, y, z'

loop_
  _atom_site_type_symbol
  _atom_site_label
  _atom_site_symmetry_multiplicity
  _atom_site_fract_x
  _atom_site_fract_y
  _atom_site_fract_z
  _atom_site_occupancy
  Sc  Sc1       1.0  0.24999963461787575  0.24999969442402317  0.25000050460345613  1.0000
  Sc  Sc2       1.0  0.7500004397556645  0.7499997579258664  0.749999554998055  1.0000
  S   S1        1.0  0.9999999979244134  5.0950413865984025e-08  0.999999979866122  1.0000
  Cl  Cl1       1.0  0.2572021562185585  0.2572022609774237  0.7427977422250377  1.0000
  Cl  Cl2       1.0  0.7427976922483925  0.7427979486010272  0.257202307058568  1.0000
  Cl  Cl3       1.0  0.7427979343204515  0.25720215676075453  0.25720233613415194  1.0000
  Cl  Cl4       1.0  0.2572021588161429  0.742797875369712  0.7427976580209488  1.0000
  Cl  Cl5       1.0  0.25720202470352105  0.7427977407051759  0.2572024557096836  1.0000
  Cl  Cl6       1.0  0.742797996049536  0.2572024390057973  0.7427975166265622  1.0000
