data_image0
_chemical_formula_structural       Sc2SI6
_chemical_formula_sum              "Sc2 S1 I6"
_cell_length_a       7.717943639401862
_cell_length_b       7.71794363222607
_cell_length_c       7.71794371364621
_cell_angle_alpha    59.99999877653478
_cell_angle_beta     59.99999923390727
_cell_angle_gamma    59.99999943385181

_space_group_name_H-M_alt    "P 1"
_space_group_IT_number       1

loop_
  _space_group_symop_operation_xyz
  'x, y, z'

loop_
  _atom_site_type_symbol
  _atom_site_label
  _atom_site_symmetry_multiplicity
  _atom_site_fract_x
  _atom_site_fract_y
  _atom_site_fract_z
  _atom_site_occupancy
  Sc  Sc1       1.0  0.2500000379225353  0.2499999968230115  0.24999990539085373  1.0000
  Sc  Sc2       1.0  0.7499999514289631  0.7500000825080603  0.7500000635817085  1.0000
  S   S1        1.0  0.9999999875927983  0.9999999968262402  2.8521391275735585e-08  1.0000
  I   I1        1.0  0.26405618221107047  0.26405610590107575  0.7359438528325732  1.0000
  I   I2        1.0  0.7359438461927077  0.7359438607615303  0.26405612444308063  1.0000
  I   I3        1.0  0.7359438600351283  0.26405617073823506  0.2640561368859724  1.0000
  I   I4        1.0  0.2640561120137321  0.7359438482914038  0.7359439006893095  1.0000
  I   I5        1.0  0.26405618765649785  0.7359438521708147  0.26405610492392123  1.0000
  I   I6        1.0  0.7359438417300161  0.2640560891017144  0.7359438845554032  1.0000
