data_image0
_chemical_formula_structural       Sc2SeF6
_chemical_formula_sum              "Sc2 Se1 F6"
_cell_length_a       5.502674166811803
_cell_length_b       5.50267279002284
_cell_length_c       5.502673199672726
_cell_angle_alpha    59.99995848825104
_cell_angle_beta     59.99996478140447
_cell_angle_gamma    59.9999637809456

_space_group_name_H-M_alt    "P 1"
_space_group_IT_number       1

loop_
  _space_group_symop_operation_xyz
  'x, y, z'

loop_
  _atom_site_type_symbol
  _atom_site_label
  _atom_site_symmetry_multiplicity
  _atom_site_fract_x
  _atom_site_fract_y
  _atom_site_fract_z
  _atom_site_occupancy
  Sc  Sc1       1.0  0.25000445126827125  0.250001809891889  0.25000521401412445  1.0000
  Sc  Sc2       1.0  0.7499968660367078  0.7500152451414072  0.7500088776504591  1.0000
  Se  Se1       1.0  0.9999998334792204  0.9999989383280531  0.999999073027562  1.0000
  F   F1        1.0  0.27305566043191165  0.27304842464584633  0.7269445429349739  1.0000
  F   F2        1.0  0.7269485193219547  0.7269463130191675  0.27304594512238967  1.0000
  F   F3        1.0  0.7269448023473717  0.27304976167625  0.273054011745756  1.0000
  F   F4        1.0  0.27304814780850384  0.7269496811775648  0.7269450432127497  1.0000
  F   F5        1.0  0.27305582947567014  0.7269477974412218  0.27304830222182475  1.0000
  F   F6        1.0  0.7269458586077999  0.27304195681734444  0.7269491636195102  1.0000
