data_image0
_chemical_formula_structural       Sc2SbBr6
_chemical_formula_sum              "Sc2 Sb1 Br6"
_cell_length_a       7.3394511720473234
_cell_length_b       7.339450999365865
_cell_length_c       7.339450653471383
_cell_angle_alpha    60.00000044230808
_cell_angle_beta     60.0000016877685
_cell_angle_gamma    60.000000228064394

_space_group_name_H-M_alt    "P 1"
_space_group_IT_number       1

loop_
  _space_group_symop_operation_xyz
  'x, y, z'

loop_
  _atom_site_type_symbol
  _atom_site_label
  _atom_site_symmetry_multiplicity
  _atom_site_fract_x
  _atom_site_fract_y
  _atom_site_fract_z
  _atom_site_occupancy
  Sc  Sc1       1.0  0.2500000006631045  0.25000007827690024  0.24999991403777283  1.0000
  Sc  Sc2       1.0  0.7499999384284731  0.7499998827319291  0.7499999744681243  1.0000
  Sb  Sb1       1.0  0.9999999887798009  3.838043480883688e-08  0.9999999809698827  1.0000
  Br  Br1       1.0  0.2598343981110756  0.2598343036689598  0.7401656846812394  1.0000
  Br  Br2       1.0  0.7401656283533966  0.7401656406527216  0.2598344014692485  1.0000
  Br  Br3       1.0  0.7401656557038536  0.25983438183680874  0.25983435719924775  1.0000
  Br  Br4       1.0  0.2598343871123345  0.7401656125463096  0.7401656671321677  1.0000
  Br  Br5       1.0  0.2598343473351993  0.7401656374724672  0.2598343941323855  1.0000
  Br  Br6       1.0  0.7401656691632977  0.2598344169843748  0.7401656446585085  1.0000
