data_image0
_chemical_formula_structural       Sc2SnI6
_chemical_formula_sum              "Sc2 Sn1 I6"
_cell_length_a       7.895944349844391
_cell_length_b       7.895944313485665
_cell_length_c       7.895944441688784
_cell_angle_alpha    59.99999916974711
_cell_angle_beta     59.999999299108985
_cell_angle_gamma    59.99999951359235

_space_group_name_H-M_alt    "P 1"
_space_group_IT_number       1

loop_
  _space_group_symop_operation_xyz
  'x, y, z'

loop_
  _atom_site_type_symbol
  _atom_site_label
  _atom_site_symmetry_multiplicity
  _atom_site_fract_x
  _atom_site_fract_y
  _atom_site_fract_z
  _atom_site_occupancy
  Sc  Sc1       1.0  0.2499999642427634  0.25000004118276464  0.25000000236153286  1.0000
  Sc  Sc2       1.0  0.7500000106249758  0.7499998970867771  0.750000001842786  1.0000
  Sn  Sn1       1.0  3.6205088349826586e-08  1.8613275396081292e-08  0.9999999852555475  1.0000
  I   I1        1.0  0.2608504290837575  0.2608504473682998  0.7391495628919483  1.0000
  I   I2        1.0  0.7391495787094389  0.7391495281277927  0.26085045436233834  1.0000
  I   I3        1.0  0.7391495616912548  0.26085043457727564  0.26085041638675194  1.0000
  I   I4        1.0  0.2608504141496747  0.7391496060652806  0.7391495614739233  1.0000
  I   I5        1.0  0.2608504210364505  0.7391495636524716  0.2608504336578132  1.0000
  I   I6        1.0  0.7391495857809439  0.26085046303012793  0.7391495812876336  1.0000
