data_image0
_chemical_formula_structural       Sc2SbI6
_chemical_formula_sum              "Sc2 Sb1 I6"
_cell_length_a       7.956082685040473
_cell_length_b       7.9560825585575135
_cell_length_c       7.956082557384413
_cell_angle_alpha    59.99999946241566
_cell_angle_beta     59.99999991714104
_cell_angle_gamma    60.000000617366425

_space_group_name_H-M_alt    "P 1"
_space_group_IT_number       1

loop_
  _space_group_symop_operation_xyz
  'x, y, z'

loop_
  _atom_site_type_symbol
  _atom_site_label
  _atom_site_symmetry_multiplicity
  _atom_site_fract_x
  _atom_site_fract_y
  _atom_site_fract_z
  _atom_site_occupancy
  Sc  Sc1       1.0  0.25000000183933074  0.2500000035598739  0.2499999965373908  1.0000
  Sc  Sc2       1.0  0.7500000238874294  0.7499999860495126  0.750000055587507  1.0000
  Sb  Sb1       1.0  4.426962740186705e-09  2.1551345218869875e-08  2.848854522149738e-08  1.0000
  I   I1        1.0  0.26235647585689864  0.2623564887370043  0.7376435132257579  1.0000
  I   I2        1.0  0.7376434886644424  0.7376434885573273  0.2623565015022785  1.0000
  I   I3        1.0  0.7376435195041294  0.2623564959130989  0.26235645233049065  1.0000
  I   I4        1.0  0.262356510679804  0.7376434629086519  0.7376434948110406  1.0000
  I   I5        1.0  0.2623564817260902  0.7376435324621526  0.26235648965070396  1.0000
  I   I6        1.0  0.7376434852275336  0.2623565202618876  0.7376434811187366  1.0000
