data_image0
_chemical_formula_structural       Sc2SbCl6
_chemical_formula_sum              "Sc2 Sb1 Cl6"
_cell_length_a       7.1016289648059905
_cell_length_b       7.10162978497216
_cell_length_c       7.101629091129793
_cell_angle_alpha    59.99999940001684
_cell_angle_beta     59.99999858717211
_cell_angle_gamma    59.99999610982119

_space_group_name_H-M_alt    "P 1"
_space_group_IT_number       1

loop_
  _space_group_symop_operation_xyz
  'x, y, z'

loop_
  _atom_site_type_symbol
  _atom_site_label
  _atom_site_symmetry_multiplicity
  _atom_site_fract_x
  _atom_site_fract_y
  _atom_site_fract_z
  _atom_site_occupancy
  Sc  Sc1       1.0  0.2499999553118998  0.2500000193417909  0.24999991719619158  1.0000
  Sc  Sc2       1.0  0.7499999387942511  0.7499999321297751  0.7500002272998086  1.0000
  Sb  Sb1       1.0  4.5329778835676874e-08  1.0347582949591894e-08  0.999999869368003  1.0000
  Cl  Cl1       1.0  0.2598600445312377  0.25986011760824435  0.7401400081955527  1.0000
  Cl  Cl2       1.0  0.7401399731483128  0.7401398338633188  0.25985996608792233  1.0000
  Cl  Cl3       1.0  0.7401399791505235  0.25986013656777274  0.25985997067265704  1.0000
  Cl  Cl4       1.0  0.2598600055644174  0.7401399235533953  0.7401400333584428  1.0000
  Cl  Cl5       1.0  0.25986008919301345  0.7401399187760953  0.25986005446648464  1.0000
  Cl  Cl6       1.0  0.7401400033288269  0.2598601154761123  0.7401399170444114  1.0000
