data_image0
_chemical_formula_structural       Sc2SnCl6
_chemical_formula_sum              "Sc2 Sn1 Cl6"
_cell_length_a       7.061138603047362
_cell_length_b       7.061138436420125
_cell_length_c       7.061138386001391
_cell_angle_alpha    60.00000012345381
_cell_angle_beta     59.99999673609931
_cell_angle_gamma    59.99999897647893

_space_group_name_H-M_alt    "P 1"
_space_group_IT_number       1

loop_
  _space_group_symop_operation_xyz
  'x, y, z'

loop_
  _atom_site_type_symbol
  _atom_site_label
  _atom_site_symmetry_multiplicity
  _atom_site_fract_x
  _atom_site_fract_y
  _atom_site_fract_z
  _atom_site_occupancy
  Sc  Sc1       1.0  0.24999978900938646  0.2499999982500911  0.24999992203535  1.0000
  Sc  Sc2       1.0  0.7500000756725453  0.7499998507879081  0.750000051662115  1.0000
  Sn  Sn1       1.0  0.9999999957714913  0.9999999930620541  0.9999999900050027  1.0000
  Cl  Cl1       1.0  0.2556346240503329  0.2556347935456455  0.7443653059395602  1.0000
  Cl  Cl2       1.0  0.7443652748365153  0.7443652913825082  0.255634691325019  1.0000
  Cl  Cl3       1.0  0.7443654502361968  0.25563474397216424  0.2556347193722084  1.0000
  Cl  Cl4       1.0  0.2556347039571171  0.7443651588349183  0.7443654225735521  1.0000
  Cl  Cl5       1.0  0.2556347911227652  0.7443653579578838  0.25563465961281845  1.0000
  Cl  Cl6       1.0  0.7443653153126124  0.255634791146267  0.744365210286704  1.0000
