data_image0
_chemical_formula_structural       Sc2SeI6
_chemical_formula_sum              "Sc2 Se1 I6"
_cell_length_a       7.837224467019469
_cell_length_b       7.837224373552829
_cell_length_c       7.8372244253449965
_cell_angle_alpha    60.00000030970472
_cell_angle_beta     59.99999923875126
_cell_angle_gamma    59.99999977364319

_space_group_name_H-M_alt    "P 1"
_space_group_IT_number       1

loop_
  _space_group_symop_operation_xyz
  'x, y, z'

loop_
  _atom_site_type_symbol
  _atom_site_label
  _atom_site_symmetry_multiplicity
  _atom_site_fract_x
  _atom_site_fract_y
  _atom_site_fract_z
  _atom_site_occupancy
  Sc  Sc1       1.0  0.2499999817876703  0.24999997793341835  0.25000002030196644  1.0000
  Sc  Sc2       1.0  0.7499999822248961  0.7500000353775644  0.7500000057218834  1.0000
  Se  Se1       1.0  0.9999999761735494  0.9999999874981775  3.347567985506489e-08  1.0000
  I   I1        1.0  0.2647431706782569  0.26474313995561904  0.7352568444590185  1.0000
  I   I2        1.0  0.7352568504682857  0.735256838975351  0.2647431421166865  1.0000
  I   I3        1.0  0.7352568625855284  0.2647431639754596  0.26474314350467965  1.0000
  I   I4        1.0  0.26474316582307605  0.735256846210067  0.7352568327444498  1.0000
  I   I5        1.0  0.2647431672515809  0.7352568464141002  0.2647431500595295  1.0000
  I   I6        1.0  0.7352568539690015  0.26474315439505963  0.7352568319198705  1.0000
