data_image0
_chemical_formula_structural       Sc2SnF6
_chemical_formula_sum              "Sc2 Sn1 F6"
_cell_length_a       5.669994358175501
_cell_length_b       5.6699926355892805
_cell_length_c       5.669992491591924
_cell_angle_alpha    60.00006950454212
_cell_angle_beta     60.00001799516671
_cell_angle_gamma    60.00002123498391

_space_group_name_H-M_alt    "P 1"
_space_group_IT_number       1

loop_
  _space_group_symop_operation_xyz
  'x, y, z'

loop_
  _atom_site_type_symbol
  _atom_site_label
  _atom_site_symmetry_multiplicity
  _atom_site_fract_x
  _atom_site_fract_y
  _atom_site_fract_z
  _atom_site_occupancy
  Sc  Sc1       1.0  0.2499957319184514  0.2500064212073227  0.24999744828916232  1.0000
  Sc  Sc2       1.0  0.7499996313042537  0.7500109344869206  0.7499914062968304  1.0000
  Sn  Sn1       1.0  5.356096332807849e-07  0.9999995723108017  0.9999997061803652  1.0000
  F   F1        1.0  0.2676301590902091  0.26762753183371024  0.732372344547209  1.0000
  F   F2        1.0  0.732372590786056  0.7323678410856153  0.26763176047993503  1.0000
  F   F3        1.0  0.732371010286192  0.26762366561833384  0.26763379857472996  1.0000
  F   F4        1.0  0.26763039564599156  0.7323699900643023  0.7323705918902755  1.0000
  F   F5        1.0  0.2676275905491101  0.7323685974881176  0.267632177593321  1.0000
  F   F6        1.0  0.7323721967558499  0.2676258206893518  0.7323708702127395  1.0000
