data_image0
_chemical_formula_structural       Sc2SiBr6
_chemical_formula_sum              "Sc2 Si1 Br6"
_cell_length_a       7.169689235998726
_cell_length_b       7.169688327083794
_cell_length_c       7.169688892761216
_cell_angle_alpha    59.999999121848845
_cell_angle_beta     59.99999576257194
_cell_angle_gamma    59.99999967657814

_space_group_name_H-M_alt    "P 1"
_space_group_IT_number       1

loop_
  _space_group_symop_operation_xyz
  'x, y, z'

loop_
  _atom_site_type_symbol
  _atom_site_label
  _atom_site_symmetry_multiplicity
  _atom_site_fract_x
  _atom_site_fract_y
  _atom_site_fract_z
  _atom_site_occupancy
  Sc  Sc1       1.0  0.24999984818566445  0.25000004317243274  0.2500001865756648  1.0000
  Sc  Sc2       1.0  0.7500001199466184  0.7499997127101153  0.7499997551602003  1.0000
  Si  Si1       1.0  1.826848882859716e-08  2.7331616918636496e-08  0.9999999409361696  1.0000
  Br  Br1       1.0  0.2482833961191287  0.24828345384205205  0.7517165432502295  1.0000
  Br  Br2       1.0  0.7517164418810053  0.7517165668155431  0.2482834134550745  1.0000
  Br  Br3       1.0  0.7517167324958368  0.24828328236504438  0.2482834964204429  1.0000
  Br  Br4       1.0  0.2482834041028258  0.7517167604995124  0.7517165997556446  1.0000
  Br  Br5       1.0  0.24828331654331906  0.7517166865874126  0.2482835658908647  1.0000
  Br  Br6       1.0  0.7517167319143391  0.24828341777327972  0.7517165045543638  1.0000
