data_image0
_chemical_formula_structural       Sc2SbF6
_chemical_formula_sum              "Sc2 Sb1 F6"
_cell_length_a       5.729316590244691
_cell_length_b       5.72932129076096
_cell_length_c       5.729316152785607
_cell_angle_alpha    60.00004842146991
_cell_angle_beta     60.000054417913354
_cell_angle_gamma    60.00004504519802

_space_group_name_H-M_alt    "P 1"
_space_group_IT_number       1

loop_
  _space_group_symop_operation_xyz
  'x, y, z'

loop_
  _atom_site_type_symbol
  _atom_site_label
  _atom_site_symmetry_multiplicity
  _atom_site_fract_x
  _atom_site_fract_y
  _atom_site_fract_z
  _atom_site_occupancy
  Sc  Sc1       1.0  0.24998956969914224  0.2500111265606009  0.2500063399889014  1.0000
  Sc  Sc2       1.0  0.749989317236285  0.7500032256011561  0.7500047138755832  1.0000
  Sb  Sb1       1.0  0.999999142449708  1.1094546941135857e-06  7.083531238392147e-07  1.0000
  F   F1        1.0  0.2663450138417616  0.2663363665237444  0.7336548122405937  1.0000
  F   F2        1.0  0.7336650793126923  0.7336549692626998  0.2663402692027371  1.0000
  F   F3        1.0  0.7336607265058256  0.266341055988524  0.2663393695576149  1.0000
  F   F4        1.0  0.26634249171572133  0.7336576269959951  0.7336615270844944  1.0000
  F   F5        1.0  0.26634477631220244  0.7336539339121064  0.26633649495801115  1.0000
  F   F6        1.0  0.7336640989868946  0.26634039034758533  0.7336558405703221  1.0000
