data_image0
_chemical_formula_structural       Sc2SbI6
_chemical_formula_sum              "Sc2 Sb1 I6"
_cell_length_a       7.9561716229872115
_cell_length_b       7.956171544181169
_cell_length_c       7.9561717738381965
_cell_angle_alpha    59.99999847540738
_cell_angle_beta     60.00000021788024
_cell_angle_gamma    59.99999830968371

_space_group_name_H-M_alt    "P 1"
_space_group_IT_number       1

loop_
  _space_group_symop_operation_xyz
  'x, y, z'

loop_
  _atom_site_type_symbol
  _atom_site_label
  _atom_site_symmetry_multiplicity
  _atom_site_fract_x
  _atom_site_fract_y
  _atom_site_fract_z
  _atom_site_occupancy
  Sc  Sc1       1.0  0.24999996189354587  0.2499999820778948  0.25000003520616904  1.0000
  Sc  Sc2       1.0  0.750000045457348  0.7500000155050918  0.749999904369323  1.0000
  Sb  Sb1       1.0  1.8266089969782125e-08  6.157457923719429e-09  2.8008574458679984e-08  1.0000
  I   I1        1.0  0.26235537198925035  0.2623553963176347  0.737644618423848  1.0000
  I   I2        1.0  0.7376446311535283  0.7376446443675609  0.262355353236918  1.0000
  I   I3        1.0  0.737644583938415  0.2623553373417755  0.2623554234454162  1.0000
  I   I4        1.0  0.2623553688783248  0.7376446279145539  0.7376446374874058  1.0000
  I   I5        1.0  0.2623553492287093  0.7376446094115898  0.2623554185366304  1.0000
  I   I6        1.0  0.737644658635307  0.26235538663203145  0.7376445919375924  1.0000
