data_image0
_chemical_formula_structural       Sc2SeBr6
_chemical_formula_sum              "Sc2 Se1 Br6"
_cell_length_a       7.327651892572082
_cell_length_b       7.327651053958828
_cell_length_c       7.327651079804256
_cell_angle_alpha    59.99999863386811
_cell_angle_beta     60.000000989930285
_cell_angle_gamma    60.00000235893667

_space_group_name_H-M_alt    "P 1"
_space_group_IT_number       1

loop_
  _space_group_symop_operation_xyz
  'x, y, z'

loop_
  _atom_site_type_symbol
  _atom_site_label
  _atom_site_symmetry_multiplicity
  _atom_site_fract_x
  _atom_site_fract_y
  _atom_site_fract_z
  _atom_site_occupancy
  Sc  Sc1       1.0  0.25000013751012384  0.249999948238991  0.24999958124876004  1.0000
  Sc  Sc2       1.0  0.7500006217802343  0.7499997795323098  0.7500001496770626  1.0000
  Se  Se1       1.0  0.999999948172967  1.838541658721331e-08  1.1262033858066222e-08  1.0000
  Br  Br1       1.0  0.25519720418064246  0.25519727891594407  0.7448029051117987  1.0000
  Br  Br2       1.0  0.7448025703796861  0.7448028265921016  0.255197134769458  1.0000
  Br  Br3       1.0  0.7448026530054558  0.25519742003471907  0.25519730728996504  1.0000
  Br  Br4       1.0  0.255197038481957  0.7448027172299553  0.7448027841786188  1.0000
  Br  Br5       1.0  0.25519728427733895  0.744802690794192  0.25519737930565  1.0000
  Br  Br6       1.0  0.7448025531899092  0.2551973110869473  0.7448027628172277  1.0000
