data_image0
_chemical_formula_structural       Sc2SiCl6
_chemical_formula_sum              "Sc2 Si1 Cl6"
_cell_length_a       6.839887374981283
_cell_length_b       6.839888719954038
_cell_length_c       6.839889359888404
_cell_angle_alpha    59.99999012234372
_cell_angle_beta     59.99998892154436
_cell_angle_gamma    59.99998816497136

_space_group_name_H-M_alt    "P 1"
_space_group_IT_number       1

loop_
  _space_group_symop_operation_xyz
  'x, y, z'

loop_
  _atom_site_type_symbol
  _atom_site_label
  _atom_site_symmetry_multiplicity
  _atom_site_fract_x
  _atom_site_fract_y
  _atom_site_fract_z
  _atom_site_occupancy
  Sc  Sc1       1.0  0.24999992598404516  0.2499993781974791  0.2500001071583414  1.0000
  Sc  Sc2       1.0  0.7499997597725346  0.7500012430601344  0.7499989181459763  1.0000
  Si  Si1       1.0  0.9999998764315479  4.010926110893363e-07  0.9999999694267859  1.0000
  Cl  Cl1       1.0  0.24739755602581337  0.24739739774937597  0.7526025851686059  1.0000
  Cl  Cl2       1.0  0.752602176517615  0.7526025108525438  0.24739782279475273  1.0000
  Cl  Cl3       1.0  0.7526028204386258  0.24739704590661343  0.24739787938626798  1.0000
  Cl  Cl4       1.0  0.24739749777408188  0.7526025744099445  0.7526023126325904  1.0000
  Cl  Cl5       1.0  0.24739730827627432  0.7526026337100662  0.2473980172245857  1.0000
  Cl  Cl6       1.0  0.7526029736331438  0.2473969131922104  0.7526024124045563  1.0000
