data_image0
_chemical_formula_structural       Sc2SbCl6
_chemical_formula_sum              "Sc2 Sb1 Cl6"
_cell_length_a       7.101938264008506
_cell_length_b       7.101938103811398
_cell_length_c       7.1019382412449295
_cell_angle_alpha    60.00000202538649
_cell_angle_beta     59.999999313854545
_cell_angle_gamma    59.999998224217975

_space_group_name_H-M_alt    "P 1"
_space_group_IT_number       1

loop_
  _space_group_symop_operation_xyz
  'x, y, z'

loop_
  _atom_site_type_symbol
  _atom_site_label
  _atom_site_symmetry_multiplicity
  _atom_site_fract_x
  _atom_site_fract_y
  _atom_site_fract_z
  _atom_site_occupancy
  Sc  Sc1       1.0  0.2499998373007547  0.25000004409573057  0.2500002697393316  1.0000
  Sc  Sc2       1.0  0.7499999977069357  0.7499997235754498  0.7500003735968185  1.0000
  Sb  Sb1       1.0  2.9283034533241485e-08  0.9999999706831199  0.9999998437215611  1.0000
  Cl  Cl1       1.0  0.25989139901585034  0.2598914133988733  0.7401085015483477  1.0000
  Cl  Cl2       1.0  0.7401085696391507  0.7401086215731918  0.2598912443208839  1.0000
  Cl  Cl3       1.0  0.7401086841954743  0.25989150671669836  0.2598912289111121  1.0000
  Cl  Cl4       1.0  0.25989121889383676  0.740108783484632  0.7401086234798201  1.0000
  Cl  Cl5       1.0  0.25989141571446905  0.7401085605937118  0.25989131496835993  1.0000
  Cl  Cl6       1.0  0.7401088710101599  0.25989136400894397  0.7401085579736336  1.0000
