data_image0
_chemical_formula_structural       Sc2SbF6
_chemical_formula_sum              "Sc2 Sb1 F6"
_cell_length_a       9.212711600472332
_cell_length_b       5.852401332192443
_cell_length_c       8.25153828655371
_cell_angle_alpha    62.45461885936912
_cell_angle_beta     62.2033776432528
_cell_angle_gamma    55.12710858341999

_space_group_name_H-M_alt    "P 1"
_space_group_IT_number       1

loop_
  _space_group_symop_operation_xyz
  'x, y, z'

loop_
  _atom_site_type_symbol
  _atom_site_label
  _atom_site_symmetry_multiplicity
  _atom_site_fract_x
  _atom_site_fract_y
  _atom_site_fract_z
  _atom_site_occupancy
  Sc  Sc1       1.0  0.5686804337100668  0.3148564262974165  0.02272050609874076  1.0000
  Sc  Sc2       1.0  0.3878105591895449  0.9823197192221357  0.009388032533071522  1.0000
  Sb  Sb1       1.0  0.12287452296038803  0.8461424426785485  0.9436150749179344  1.0000
  F   F1        1.0  0.15259540059038618  0.18234722752714258  0.9500039922248446  1.0000
  F   F2        1.0  0.42383184511689054  0.08226987602362024  0.19254211569563243  1.0000
  F   F3        1.0  0.8328750062103044  0.07783874921833173  0.010193404730562346  1.0000
  F   F4        1.0  0.5531555550144286  0.7070790167237174  0.839387018024792  1.0000
  F   F5        1.0  0.4268760545844374  0.5838094824900283  0.19278395759362335  1.0000
  F   F6        1.0  0.5312705505238258  0.22350383105816823  0.8394203730798588  1.0000
