data_image0
_chemical_formula_structural       Sc2SiI6
_chemical_formula_sum              "Sc2 Si1 I6"
_cell_length_a       7.74257852062161
_cell_length_b       7.742578507548282
_cell_length_c       7.742578646529887
_cell_angle_alpha    59.999999781945874
_cell_angle_beta     59.99999988264618
_cell_angle_gamma    59.999999611818204

_space_group_name_H-M_alt    "P 1"
_space_group_IT_number       1

loop_
  _space_group_symop_operation_xyz
  'x, y, z'

loop_
  _atom_site_type_symbol
  _atom_site_label
  _atom_site_symmetry_multiplicity
  _atom_site_fract_x
  _atom_site_fract_y
  _atom_site_fract_z
  _atom_site_occupancy
  Sc  Sc1       1.0  0.2500000065750802  0.2499999920806127  0.25000003921023356  1.0000
  Sc  Sc2       1.0  0.7500000181434093  0.7499999809873297  0.7499999313558806  1.0000
  Si  Si1       1.0  1.598371888189456e-08  0.9999999699452158  3.2866720024358275e-08  1.0000
  I   I1        1.0  0.25167763204669935  0.25167762615721395  0.7483223599452767  1.0000
  I   I2        1.0  0.7483223718676344  0.7483223690563591  0.2516776448222031  1.0000
  I   I3        1.0  0.7483223494246711  0.2516776605719448  0.2516776362172768  1.0000
  I   I4        1.0  0.25167762297455715  0.7483223710237356  0.748322355784227  1.0000
  I   I5        1.0  0.25167761631041685  0.7483223712794391  0.2516776524185725  1.0000
  I   I6        1.0  0.7483223616174582  0.2516776571525797  0.74832235648227  1.0000
