data_image0
_chemical_formula_structural       Sc2SbBr6
_chemical_formula_sum              "Sc2 Sb1 Br6"
_cell_length_a       7.338709269641334
_cell_length_b       7.338708805700473
_cell_length_c       7.3387087571748815
_cell_angle_alpha    60.0000032980857
_cell_angle_beta     60.00000297894562
_cell_angle_gamma    60.00000207020832

_space_group_name_H-M_alt    "P 1"
_space_group_IT_number       1

loop_
  _space_group_symop_operation_xyz
  'x, y, z'

loop_
  _atom_site_type_symbol
  _atom_site_label
  _atom_site_symmetry_multiplicity
  _atom_site_fract_x
  _atom_site_fract_y
  _atom_site_fract_z
  _atom_site_occupancy
  Sc  Sc1       1.0  0.24999977706732046  0.2500002332061986  0.250000044379472  1.0000
  Sc  Sc2       1.0  0.750000045128834  0.7499998134415826  0.7500000870876284  1.0000
  Sb  Sb1       1.0  3.544189248595835e-08  1.1682182843010403e-08  0.9999999628115874  1.0000
  Br  Br1       1.0  0.2597789474718253  0.25977908104152453  0.7402209621466268  1.0000
  Br  Br2       1.0  0.7402210795903742  0.7402208938442746  0.2597789842189762  1.0000
  Br  Br3       1.0  0.7402209702636996  0.2597790585211003  0.25977898165780455  1.0000
  Br  Br4       1.0  0.25977905965904063  0.7402209313846502  0.740221017086242  1.0000
  Br  Br5       1.0  0.2597790470469382  0.7402209642253427  0.259779015517676  1.0000
  Br  Br6       1.0  0.7402210413793481  0.25977901066045866  0.740220951946109  1.0000
