data_image0
_chemical_formula_structural       Sc2SBr6
_chemical_formula_sum              "Sc2 S1 Br6"
_cell_length_a       7.21596876440167
_cell_length_b       7.21596863680417
_cell_length_c       7.215969076130319
_cell_angle_alpha    59.99999861784547
_cell_angle_beta     59.999998318391654
_cell_angle_gamma    59.999996901893496

_space_group_name_H-M_alt    "P 1"
_space_group_IT_number       1

loop_
  _space_group_symop_operation_xyz
  'x, y, z'

loop_
  _atom_site_type_symbol
  _atom_site_label
  _atom_site_symmetry_multiplicity
  _atom_site_fract_x
  _atom_site_fract_y
  _atom_site_fract_z
  _atom_site_occupancy
  Sc  Sc1       1.0  0.25000078511701623  0.24999987893355569  0.2499996038260779  1.0000
  Sc  Sc2       1.0  0.7499997169595753  0.749999534964508  0.7500004282671693  1.0000
  S   S1        1.0  1.2219201784203492e-08  3.0550864708219404e-08  4.945456654703186e-09  1.0000
  Br  Br1       1.0  0.2558788899327316  0.2558788859122872  0.744121049599655  1.0000
  Br  Br2       1.0  0.7441208542801037  0.7441213901990863  0.25587892477555996  1.0000
  Br  Br3       1.0  0.7441209998296887  0.25587915722241417  0.2558786317375276  1.0000
  Br  Br4       1.0  0.25587890238439476  0.7441210289336315  0.7441212517963014  1.0000
  Br  Br5       1.0  0.2558789019721843  0.7441211251095673  0.2558788344100866  1.0000
  Br  Br6       1.0  0.7441209422159134  0.25587897109115687  0.7441212672391816  1.0000
