data_image0
_chemical_formula_structural       Sc2TeCl6
_chemical_formula_sum              "Sc2 Te1 Cl6"
_cell_length_a       7.171485432209283
_cell_length_b       7.1714853653817805
_cell_length_c       7.171486066985642
_cell_angle_alpha    59.999995102351704
_cell_angle_beta     59.99999435344087
_cell_angle_gamma    59.999999891514086

_space_group_name_H-M_alt    "P 1"
_space_group_IT_number       1

loop_
  _space_group_symop_operation_xyz
  'x, y, z'

loop_
  _atom_site_type_symbol
  _atom_site_label
  _atom_site_symmetry_multiplicity
  _atom_site_fract_x
  _atom_site_fract_y
  _atom_site_fract_z
  _atom_site_occupancy
  Sc  Sc1       1.0  0.25000063445625076  0.2500000162686841  0.24999919177538568  1.0000
  Sc  Sc2       1.0  0.7500002064700518  0.7500002366637667  0.7499997075248803  1.0000
  Te  Te1       1.0  0.9999998446660145  0.999999842882565  4.643905753618296e-07  1.0000
  Cl  Cl1       1.0  0.2577578611928002  0.25775792942586156  0.7422422402032395  1.0000
  Cl  Cl2       1.0  0.7422419757450206  0.7422423696170933  0.25775783803042335  1.0000
  Cl  Cl3       1.0  0.7422419139867513  0.25775784960850917  0.2577582239379117  1.0000
  Cl  Cl4       1.0  0.25775802282396476  0.7422417150812625  0.7422420669550677  1.0000
  Cl  Cl5       1.0  0.2577579441358144  0.7422419378271308  0.2577582495007062  1.0000
  Cl  Cl6       1.0  0.742241580766667  0.25775811870848087  0.7422420209452285  1.0000
