data_image0
_chemical_formula_structural       Sc2TaBr6
_chemical_formula_sum              "Sc2 Ta1 Br6"
_cell_length_a       7.204720594661125
_cell_length_b       7.204720526279155
_cell_length_c       7.2047205121703275
_cell_angle_alpha    60.00000259820107
_cell_angle_beta     60.00000327532088
_cell_angle_gamma    60.000000868098226

_space_group_name_H-M_alt    "P 1"
_space_group_IT_number       1

loop_
  _space_group_symop_operation_xyz
  'x, y, z'

loop_
  _atom_site_type_symbol
  _atom_site_label
  _atom_site_symmetry_multiplicity
  _atom_site_fract_x
  _atom_site_fract_y
  _atom_site_fract_z
  _atom_site_occupancy
  Sc  Sc1       1.0  0.24999998121037542  0.249999802571328  0.25000047007046716  1.0000
  Sc  Sc2       1.0  0.7500000390844176  0.7500001454792418  0.7499999887054248  1.0000
  Ta  Ta1       1.0  0.9999999974584581  0.9999999932003184  0.9999999102880468  1.0000
  Br  Br1       1.0  0.2524087138013699  0.25240879185487997  0.7475911795019609  1.0000
  Br  Br2       1.0  0.7475913006492516  0.7475911544957604  0.25240876671783335  1.0000
  Br  Br3       1.0  0.7475911799343302  0.252408842348831  0.25240869139855804  1.0000
  Br  Br4       1.0  0.2524088425769652  0.7475911855979668  0.747591071194933  1.0000
  Br  Br5       1.0  0.2524087038913729  0.7475913178899202  0.2524087263779087  1.0000
  Br  Br6       1.0  0.7475912407181291  0.2524087610544803  0.747591188465566  1.0000
