data_image0
_chemical_formula_structural       Sc2TaCl6
_chemical_formula_sum              "Sc2 Ta1 Cl6"
_cell_length_a       6.825643031316378
_cell_length_b       6.825643494155836
_cell_length_c       6.82564332051269
_cell_angle_alpha    60.00000276425732
_cell_angle_beta     60.00000148759763
_cell_angle_gamma    60.00000282222485

_space_group_name_H-M_alt    "P 1"
_space_group_IT_number       1

loop_
  _space_group_symop_operation_xyz
  'x, y, z'

loop_
  _atom_site_type_symbol
  _atom_site_label
  _atom_site_symmetry_multiplicity
  _atom_site_fract_x
  _atom_site_fract_y
  _atom_site_fract_z
  _atom_site_occupancy
  Sc  Sc1       1.0  0.25000018359802034  0.25000000077099566  0.2500001278384895  1.0000
  Sc  Sc2       1.0  0.7500001906475472  0.7500000220505937  0.7499997113084773  1.0000
  Ta  Ta1       1.0  2.747782836614838e-08  0.999999978468055  0.9999999721209814  1.0000
  Cl  Cl1       1.0  0.25450702825201155  0.254507153644762  0.7454927746556185  1.0000
  Cl  Cl2       1.0  0.7454927401210991  0.7454929409499746  0.25450719235997077  1.0000
  Cl  Cl3       1.0  0.7454927814199722  0.25450705267899876  0.2545071930527023  1.0000
  Cl  Cl4       1.0  0.25450697745381007  0.7454929486106447  0.7454929015483913  1.0000
  Cl  Cl5       1.0  0.254507117264467  0.7454928212548702  0.25450715483718445  1.0000
  Cl  Cl6       1.0  0.7454929152059786  0.2545071154389399  0.7454929114467946  1.0000
