data_image0
_chemical_formula_structural       Sc2TiCl6
_chemical_formula_sum              "Sc2 Ti1 Cl6"
_cell_length_a       6.727635602231028
_cell_length_b       6.72763551553262
_cell_length_c       6.7276357497202435
_cell_angle_alpha    60.0000005110454
_cell_angle_beta     60.00000098956865
_cell_angle_gamma    60.000001742247264

_space_group_name_H-M_alt    "P 1"
_space_group_IT_number       1

loop_
  _space_group_symop_operation_xyz
  'x, y, z'

loop_
  _atom_site_type_symbol
  _atom_site_label
  _atom_site_symmetry_multiplicity
  _atom_site_fract_x
  _atom_site_fract_y
  _atom_site_fract_z
  _atom_site_occupancy
  Sc  Sc1       1.0  0.24999935428119205  0.2500006038176819  0.2500001871410419  1.0000
  Sc  Sc2       1.0  0.7500000503352261  0.7499994430235406  0.7500001617887575  1.0000
  Ti  Ti1       1.0  2.3526249906728377e-08  0.9999999963590639  2.8703906544761752e-08  1.0000
  Cl  Cl1       1.0  0.2516372764066287  0.25163750067537616  0.7483625540079171  1.0000
  Cl  Cl2       1.0  0.7483628412286177  0.7483623277096363  0.25163743616010903  1.0000
  Cl  Cl3       1.0  0.7483627524604851  0.25163743706926806  0.2516372998024619  1.0000
  Cl  Cl4       1.0  0.251637461233942  0.7483626643860231  0.7483625370153713  1.0000
  Cl  Cl5       1.0  0.2516374853016131  0.7483624634527318  0.25163735013300415  1.0000
  Cl  Cl6       1.0  0.7483627342022873  0.2516375433381962  0.7483624820608654  1.0000
