data_image0
_chemical_formula_structural       Sc2TiF6
_chemical_formula_sum              "Sc2 Ti1 F6"
_cell_length_a       5.515761997835416
_cell_length_b       5.515761092116672
_cell_length_c       5.515761574913937
_cell_angle_alpha    60.00000023029784
_cell_angle_beta     60.000000976269945
_cell_angle_gamma    60.00000006992927

_space_group_name_H-M_alt    "P 1"
_space_group_IT_number       1

loop_
  _space_group_symop_operation_xyz
  'x, y, z'

loop_
  _atom_site_type_symbol
  _atom_site_label
  _atom_site_symmetry_multiplicity
  _atom_site_fract_x
  _atom_site_fract_y
  _atom_site_fract_z
  _atom_site_occupancy
  Sc  Sc1       1.0  0.2499998207126431  0.2500000039369587  0.2500000004450571  1.0000
  Sc  Sc2       1.0  0.7499999126262451  0.7500003937275679  0.7499994056470304  1.0000
  Ti  Ti1       1.0  0.9999999177638454  0.9999999578115266  6.583828644845457e-08  1.0000
  F   F1        1.0  0.25393779371796416  0.25393698623008887  0.7460626103267933  1.0000
  F   F2        1.0  0.7460623814783539  0.7460627453007205  0.25393752431874855  1.0000
  F   F3        1.0  0.7460626806654435  0.2539370810904169  0.25393777543440466  1.0000
  F   F4        1.0  0.25393766293611025  0.746062748140023  0.7460624274001803  1.0000
  F   F5        1.0  0.253937365400615  0.7460627344618446  0.25393751140394705  1.0000
  F   F6        1.0  0.746062457771996  0.25393734345851066  0.7460627040170973  1.0000
