data_image0
_chemical_formula_structural       Sc2TiBr6
_chemical_formula_sum              "Sc2 Ti1 Br6"
_cell_length_a       7.122420034738831
_cell_length_b       7.122420302780051
_cell_length_c       7.122420191592154
_cell_angle_alpha    60.00000129731609
_cell_angle_beta     59.99999930906073
_cell_angle_gamma    59.999999934391205

_space_group_name_H-M_alt    "P 1"
_space_group_IT_number       1

loop_
  _space_group_symop_operation_xyz
  'x, y, z'

loop_
  _atom_site_type_symbol
  _atom_site_label
  _atom_site_symmetry_multiplicity
  _atom_site_fract_x
  _atom_site_fract_y
  _atom_site_fract_z
  _atom_site_occupancy
  Sc  Sc1       1.0  0.2500000193474176  0.2499999683828618  0.25000002933174686  1.0000
  Sc  Sc2       1.0  0.7499997353689734  0.7499999928462923  0.7500005452551746  1.0000
  Ti  Ti1       1.0  4.790045326526065e-08  0.9999999535718053  0.9999999697795106  1.0000
  Br  Br1       1.0  0.25040312650311625  0.2504030571524323  0.7495968407007298  1.0000
  Br  Br2       1.0  0.7495969560760953  0.7495969126745256  0.25040295631244236  1.0000
  Br  Br3       1.0  0.7495969676190415  0.250403185630497  0.2504030557754077  1.0000
  Br  Br4       1.0  0.2504031130916451  0.7495968822115374  0.7495967914456889  1.0000
  Br  Br5       1.0  0.2504031220480033  0.7495969277305523  0.25040302326624453  1.0000
  Br  Br6       1.0  0.7495968888687785  0.2504031160376044  0.7495968119200234  1.0000
