data_image0
_chemical_formula_structural       Sc2TeI6
_chemical_formula_sum              "Sc2 Te1 I6"
_cell_length_a       7.9871585849321765
_cell_length_b       7.98715823426922
_cell_length_c       7.9871585746586025
_cell_angle_alpha    59.99999940356192
_cell_angle_beta     59.999999398314706
_cell_angle_gamma    59.999999859954016

_space_group_name_H-M_alt    "P 1"
_space_group_IT_number       1

loop_
  _space_group_symop_operation_xyz
  'x, y, z'

loop_
  _atom_site_type_symbol
  _atom_site_label
  _atom_site_symmetry_multiplicity
  _atom_site_fract_x
  _atom_site_fract_y
  _atom_site_fract_z
  _atom_site_occupancy
  Sc  Sc1       1.0  0.25000001631854263  0.24999996802369326  0.24999999345861285  1.0000
  Sc  Sc2       1.0  0.7500000017712454  0.7500000282758748  0.7499999706618565  1.0000
  Te  Te1       1.0  0.9999999868133409  9.200355308461917e-09  2.3277316898066555e-08  1.0000
  I   I1        1.0  0.26375088087412074  0.26375086783265633  0.7362491228963761  1.0000
  I   I2        1.0  0.7362491228464003  0.7362491238667342  0.26375087700101907  1.0000
  I   I3        1.0  0.7362491251861559  0.26375085348590693  0.26375088493258525  1.0000
  I   I4        1.0  0.26375086866253344  0.7362491504806239  0.7362491225312237  1.0000
  I   I5        1.0  0.2637508645555184  0.7362491373069596  0.26375087103011985  1.0000
  I   I6        1.0  0.7362491249560822  0.26375086665957104  0.7362491386022336  1.0000
