data_image0
_chemical_formula_structural       Sc2TaI6
_chemical_formula_sum              "Sc2 Ta1 I6"
_cell_length_a       7.911594676773961
_cell_length_b       7.911594899287161
_cell_length_c       7.911594872267982
_cell_angle_alpha    59.99999991817576
_cell_angle_beta     60.000002170984665
_cell_angle_gamma    60.00000248357271

_space_group_name_H-M_alt    "P 1"
_space_group_IT_number       1

loop_
  _space_group_symop_operation_xyz
  'x, y, z'

loop_
  _atom_site_type_symbol
  _atom_site_label
  _atom_site_symmetry_multiplicity
  _atom_site_fract_x
  _atom_site_fract_y
  _atom_site_fract_z
  _atom_site_occupancy
  Sc  Sc1       1.0  0.2499999796241793  0.25000000171992737  0.24999999487123822  1.0000
  Sc  Sc2       1.0  0.750000013631006  0.7500000392166163  0.7499999870846096  1.0000
  Ta  Ta1       1.0  2.1361361706930605e-08  2.7864681612481854e-08  2.973758784882277e-08  1.0000
  I   I1        1.0  0.25092310282432134  0.25092308997839374  0.7490769060816542  1.0000
  I   I2        1.0  0.7490769352783921  0.7490768952287867  0.250923088898918  1.0000
  I   I3        1.0  0.7490769189279535  0.2509230889946882  0.2509230610893997  1.0000
  I   I4        1.0  0.2509230262673183  0.749076920981097  0.7490769426812358  1.0000
  I   I5        1.0  0.25092306071186915  0.7490769215143166  0.25092308470504177  1.0000
  I   I6        1.0  0.7490769334590301  0.2509230203478031  0.7490769008273256  1.0000
