data_image0
_chemical_formula_structural       Sc2TiI6
_chemical_formula_sum              "Sc2 Ti1 I6"
_cell_length_a       7.831727536207871
_cell_length_b       7.831727487448966
_cell_length_c       7.831727456533804
_cell_angle_alpha    60.00000000039737
_cell_angle_beta     60.000000378424424
_cell_angle_gamma    60.00000083229207

_space_group_name_H-M_alt    "P 1"
_space_group_IT_number       1

loop_
  _space_group_symop_operation_xyz
  'x, y, z'

loop_
  _atom_site_type_symbol
  _atom_site_label
  _atom_site_symmetry_multiplicity
  _atom_site_fract_x
  _atom_site_fract_y
  _atom_site_fract_z
  _atom_site_occupancy
  Sc  Sc1       1.0  0.2500000007783606  0.2500000184913738  0.2500000338327746  1.0000
  Sc  Sc2       1.0  0.7499999873535812  0.7500000163785047  0.749999976590839  1.0000
  Ti  Ti1       1.0  0.9999999961875474  0.9999999937447013  0.9999999922653006  1.0000
  I   I1        1.0  0.2506971872525086  0.2506971894870089  0.749302800413837  1.0000
  I   I2        1.0  0.7493028238308724  0.7493027499895646  0.2506972258009895  1.0000
  I   I3        1.0  0.7493028409664804  0.25069716041905227  0.2506972129879145  1.0000
  I   I4        1.0  0.25069720608223545  0.7493028259722617  0.7493028024314544  1.0000
  I   I5        1.0  0.25069718279952424  0.7493028111487836  0.25069716498379724  1.0000
  I   I6        1.0  0.7493027756657838  0.2506972331040426  0.7493027942924988  1.0000
