data_image0
_chemical_formula_structural       Sc2TaI6
_chemical_formula_sum              "Sc2 Ta1 I6"
_cell_length_a       7.911689683185374
_cell_length_b       7.91168952802698
_cell_length_c       7.911689528676017
_cell_angle_alpha    59.999999583560566
_cell_angle_beta     60.000000878957096
_cell_angle_gamma    59.99999951424778

_space_group_name_H-M_alt    "P 1"
_space_group_IT_number       1

loop_
  _space_group_symop_operation_xyz
  'x, y, z'

loop_
  _atom_site_type_symbol
  _atom_site_label
  _atom_site_symmetry_multiplicity
  _atom_site_fract_x
  _atom_site_fract_y
  _atom_site_fract_z
  _atom_site_occupancy
  Sc  Sc1       1.0  0.24999999968161324  0.24999997552797837  0.2500000355204168  1.0000
  Sc  Sc2       1.0  0.7499999999275587  0.7500000333972738  0.7499999364295883  1.0000
  Ta  Ta1       1.0  2.5858475603249594e-08  0.9999999705876317  0.9999999676502281  1.0000
  I   I1        1.0  0.2509205627314282  0.25092053962623834  0.7490794461177672  1.0000
  I   I2        1.0  0.7490794355067901  0.7490794646549555  0.2509205566466995  1.0000
  I   I3        1.0  0.7490794744343475  0.2509205172306039  0.2509205544106034  1.0000
  I   I4        1.0  0.25092051100743207  0.7490794947906868  0.7490794673134172  1.0000
  I   I5        1.0  0.2509205055667395  0.7490794944695417  0.2509205477903682  1.0000
  I   I6        1.0  0.7490794898410383  0.25092050516759373  0.7490794814624935  1.0000
