data_image0
_chemical_formula_structural       Sc2TaCl6
_chemical_formula_sum              "Sc2 Ta1 Cl6"
_cell_length_a       6.8257257715895765
_cell_length_b       6.825726063977336
_cell_length_c       6.8257260766989525
_cell_angle_alpha    60.0000005596652
_cell_angle_beta     59.9999977371655
_cell_angle_gamma    60.00000172455542

_space_group_name_H-M_alt    "P 1"
_space_group_IT_number       1

loop_
  _space_group_symop_operation_xyz
  'x, y, z'

loop_
  _atom_site_type_symbol
  _atom_site_label
  _atom_site_symmetry_multiplicity
  _atom_site_fract_x
  _atom_site_fract_y
  _atom_site_fract_z
  _atom_site_occupancy
  Sc  Sc1       1.0  0.24999975592029194  0.24999968795917765  0.25000006556276777  1.0000
  Sc  Sc2       1.0  0.7499998555209809  0.7500005334150381  0.7500004924407299  1.0000
  Ta  Ta1       1.0  1.994492846983482e-07  0.9999999497594038  0.9999998199123707  1.0000
  Cl  Cl1       1.0  0.25451000619027336  0.25450987581219564  0.7454900591691389  1.0000
  Cl  Cl2       1.0  0.7454900586442936  0.7454901374223996  0.2545096861710377  1.0000
  Cl  Cl3       1.0  0.7454901784684197  0.2545099279987706  0.2545099139304358  1.0000
  Cl  Cl4       1.0  0.25450987563551364  0.7454900565269135  0.7454900562358978  1.0000
  Cl  Cl5       1.0  0.25451001727370337  0.7454900695569395  0.2545098395961187  1.0000
  Cl  Cl6       1.0  0.7454900759473292  0.25450972656650267  0.7454901099848208  1.0000
