data_image0
_chemical_formula_structural       Sc2TaBr6
_chemical_formula_sum              "Sc2 Ta1 Br6"
_cell_length_a       7.204221857673287
_cell_length_b       7.204221777535759
_cell_length_c       7.204221994114665
_cell_angle_alpha    60.000002058143735
_cell_angle_beta     60.00000210058668
_cell_angle_gamma    59.99999864813538

_space_group_name_H-M_alt    "P 1"
_space_group_IT_number       1

loop_
  _space_group_symop_operation_xyz
  'x, y, z'

loop_
  _atom_site_type_symbol
  _atom_site_label
  _atom_site_symmetry_multiplicity
  _atom_site_fract_x
  _atom_site_fract_y
  _atom_site_fract_z
  _atom_site_occupancy
  Sc  Sc1       1.0  0.25000011699404234  0.2500001670094532  0.2499997874303172  1.0000
  Sc  Sc2       1.0  0.7500001470281606  0.7500000454182679  0.7499998988961316  1.0000
  Ta  Ta1       1.0  2.758951455016351e-08  0.9999998979977389  1.0105781861859481e-07  1.0000
  Br  Br1       1.0  0.25241820761251643  0.2524182090068746  0.7475817716071531  1.0000
  Br  Br2       1.0  0.7475816812437653  0.7475817008141489  0.2524183174570376  1.0000
  Br  Br3       1.0  0.7475816798678766  0.25241831789611713  0.25241829796957754  1.0000
  Br  Br4       1.0  0.2524182004214873  0.7475817330280371  0.747581790066032  1.0000
  Br  Br5       1.0  0.25241824438194915  0.7475817141953186  0.2524182410489247  1.0000
  Br  Br6       1.0  0.7475816993588104  0.2524181752252508  0.7475818127282806  1.0000
