data_image0
_chemical_formula_structural       Sc2TaF6
_chemical_formula_sum              "Sc2 Ta1 F6"
_cell_length_a       5.74364034235791
_cell_length_b       5.743639905588442
_cell_length_c       5.743645111816722
_cell_angle_alpha    59.999946767123326
_cell_angle_beta     59.99993204018863
_cell_angle_gamma    59.99992385190238

_space_group_name_H-M_alt    "P 1"
_space_group_IT_number       1

loop_
  _space_group_symop_operation_xyz
  'x, y, z'

loop_
  _atom_site_type_symbol
  _atom_site_label
  _atom_site_symmetry_multiplicity
  _atom_site_fract_x
  _atom_site_fract_y
  _atom_site_fract_z
  _atom_site_occupancy
  Sc  Sc1       1.0  0.24999652538687972  0.2500080166748656  0.24999520137579295  1.0000
  Sc  Sc2       1.0  0.7499984464121092  0.7500064197415989  0.7499933374147717  1.0000
  Ta  Ta1       1.0  0.9999997797599249  0.9999982301486589  1.1639283869887975e-06  1.0000
  F   F1        1.0  0.2581793293075303  0.25817693747353854  0.7418258334051985  1.0000
  F   F2        1.0  0.7418239226432938  0.7418171818970188  0.2581790204306075  1.0000
  F   F3        1.0  0.7418259418370435  0.25817443950282537  0.25818293883218835  1.0000
  F   F4        1.0  0.25817595698085954  0.7418215499403314  0.7418206049368584  1.0000
  F   F5        1.0  0.2581760951015734  0.7418240556071378  0.2581824816871172  1.0000
  F   F6        1.0  0.7418241173980414  0.25817307251243  0.7418193806988179  1.0000
