data_image0
_chemical_formula_structural       Sc2TeBr6
_chemical_formula_sum              "Sc2 Te1 Br6"
_cell_length_a       7.427868393770903
_cell_length_b       7.427868672716898
_cell_length_c       7.427868227828055
_cell_angle_alpha    59.99999841086016
_cell_angle_beta     59.99999850360932
_cell_angle_gamma    59.999998319123534

_space_group_name_H-M_alt    "P 1"
_space_group_IT_number       1

loop_
  _space_group_symop_operation_xyz
  'x, y, z'

loop_
  _atom_site_type_symbol
  _atom_site_label
  _atom_site_symmetry_multiplicity
  _atom_site_fract_x
  _atom_site_fract_y
  _atom_site_fract_z
  _atom_site_occupancy
  Sc  Sc1       1.0  0.25000017916158646  0.24999960297102455  0.24999999511996876  1.0000
  Sc  Sc2       1.0  0.7499997447354655  0.7500001098565311  0.7500002509273797  1.0000
  Te  Te1       1.0  2.4134611722809037e-08  1.154195669378338e-08  0.9999999875468403  1.0000
  Br  Br1       1.0  0.2598819066224959  0.2598817132973344  0.740118212586515  1.0000
  Br  Br2       1.0  0.740118046695009  0.7401183589797485  0.25988174343986153  1.0000
  Br  Br3       1.0  0.7401182490182908  0.2598818757264088  0.25988173842351925  1.0000
  Br  Br4       1.0  0.25988181969705965  0.7401182047949267  0.7401181827074318  1.0000
  Br  Br5       1.0  0.2598818277099184  0.7401183158094304  0.2598817443850931  1.0000
  Br  Br6       1.0  0.7401181966292896  0.2598818092308839  0.7401181645579077  1.0000
