data_image0
_chemical_formula_structural       Sc2VI6
_chemical_formula_sum              "Sc2 V1 I6"
_cell_length_a       7.70690996474613
_cell_length_b       7.706909858319552
_cell_length_c       7.706909856470797
_cell_angle_alpha    59.99999966979042
_cell_angle_beta     59.99999980488019
_cell_angle_gamma    59.99999844159793

_space_group_name_H-M_alt    "P 1"
_space_group_IT_number       1

loop_
  _space_group_symop_operation_xyz
  'x, y, z'

loop_
  _atom_site_type_symbol
  _atom_site_label
  _atom_site_symmetry_multiplicity
  _atom_site_fract_x
  _atom_site_fract_y
  _atom_site_fract_z
  _atom_site_occupancy
  Sc  Sc1       1.0  0.24999994904003042  0.2500000323122438  0.2499999946918507  1.0000
  Sc  Sc2       1.0  0.7500000267641732  0.7499998951144644  0.7500000678267112  1.0000
  V   V1        1.0  1.6057694060457674e-08  0.9999999698061177  0.999999995390262  1.0000
  I   I1        1.0  0.24914392889524273  0.24914404780840652  0.7508560128220262  1.0000
  I   I2        1.0  0.750856067383485  0.7508559845023131  0.2491439571739187  1.0000
  I   I3        1.0  0.7508560384092108  0.24914397654888004  0.2491439767842983  1.0000
  I   I4        1.0  0.2491439766510884  0.7508560398703225  0.7508560151222836  1.0000
  I   I5        1.0  0.24914397516171988  0.7508560723255722  0.2491439630370824  1.0000
  I   I6        1.0  0.750856026655648  0.24914398382242253  0.7508560091388845  1.0000
