data_image0
_chemical_formula_structural       Sc2VBr6
_chemical_formula_sum              "Sc2 V1 Br6"
_cell_length_a       7.035071335714696
_cell_length_b       7.035071462863407
_cell_length_c       7.03507126005016
_cell_angle_alpha    60.00000207005063
_cell_angle_beta     60.00000115111119
_cell_angle_gamma    60.000000929794346

_space_group_name_H-M_alt    "P 1"
_space_group_IT_number       1

loop_
  _space_group_symop_operation_xyz
  'x, y, z'

loop_
  _atom_site_type_symbol
  _atom_site_label
  _atom_site_symmetry_multiplicity
  _atom_site_fract_x
  _atom_site_fract_y
  _atom_site_fract_z
  _atom_site_occupancy
  Sc  Sc1       1.0  0.249999970528412  0.2499999490582266  0.2500001660597575  1.0000
  Sc  Sc2       1.0  0.7500000537651728  0.7500000804570377  0.7499999422926533  1.0000
  V   V1        1.0  0.9999999863884702  0.9999999965181735  0.9999999801176838  1.0000
  Br  Br1       1.0  0.2501938905375596  0.2501938515664042  0.7498060756976682  1.0000
  Br  Br2       1.0  0.7498061092524406  0.7498061431305955  0.25019388037010387  1.0000
  Br  Br3       1.0  0.7498061696146892  0.2501938440390786  0.2501938507004286  1.0000
  Br  Br4       1.0  0.2501937895227688  0.7498061593624873  0.7498061440845267  1.0000
  Br  Br5       1.0  0.2501938766548196  0.7498061075363598  0.2501938396364858  1.0000
  Br  Br6       1.0  0.7498061492147134  0.25019386801059496  0.7498061214952406  1.0000
