data_image0
_chemical_formula_structural       Sc2VF6
_chemical_formula_sum              "Sc2 V1 F6"
_cell_length_a       5.600439714106166
_cell_length_b       5.600443549990475
_cell_length_c       5.600439850149944
_cell_angle_alpha    60.00000407122286
_cell_angle_beta     59.9999994613982
_cell_angle_gamma    59.99999175933821

_space_group_name_H-M_alt    "P 1"
_space_group_IT_number       1

loop_
  _space_group_symop_operation_xyz
  'x, y, z'

loop_
  _atom_site_type_symbol
  _atom_site_label
  _atom_site_symmetry_multiplicity
  _atom_site_fract_x
  _atom_site_fract_y
  _atom_site_fract_z
  _atom_site_occupancy
  Sc  Sc1       1.0  0.24999476578827265  0.2500102929383468  0.24999686881966043  1.0000
  Sc  Sc2       1.0  0.7499974424914414  0.750008539923217  0.7499973692459182  1.0000
  V   V1        1.0  3.0382879937403543e-07  0.9999991318120397  5.964407284920122e-07  1.0000
  F   F1        1.0  0.24705705107345477  0.24705377664391293  0.7529443177119085  1.0000
  F   F2        1.0  0.7529473155233475  0.752940079959995  0.2470562204073186  1.0000
  F   F3        1.0  0.7529454456802657  0.24705409157667355  0.24705691342628713  1.0000
  F   F4        1.0  0.24705557067110526  0.7529411252614767  0.7529465570461766  1.0000
  F   F5        1.0  0.24705691356557707  0.7529401233776083  0.24705656434710288  1.0000
  F   F6        1.0  0.7529452615093261  0.24705321931235427  0.7529442105063371  1.0000
