data_image0
_chemical_formula_structural       Sc2VCl6
_chemical_formula_sum              "Sc2 V1 Cl6"
_cell_length_a       6.681094153562506
_cell_length_b       6.681094087866259
_cell_length_c       6.68109394875635
_cell_angle_alpha    60.00000023160058
_cell_angle_beta     59.999999516830165
_cell_angle_gamma    60.00000109035107

_space_group_name_H-M_alt    "P 1"
_space_group_IT_number       1

loop_
  _space_group_symop_operation_xyz
  'x, y, z'

loop_
  _atom_site_type_symbol
  _atom_site_label
  _atom_site_symmetry_multiplicity
  _atom_site_fract_x
  _atom_site_fract_y
  _atom_site_fract_z
  _atom_site_occupancy
  Sc  Sc1       1.0  0.2499997969245616  0.2499999763912777  0.25000007756223724  1.0000
  Sc  Sc2       1.0  0.7499999251330718  0.7500000941573541  0.7500000117366858  1.0000
  V   V1        1.0  4.3417441937919506e-08  0.9999999890010998  1.2229185277745784e-08  1.0000
  Cl  Cl1       1.0  0.24925308947969527  0.24925302659294962  0.7507469534359041  1.0000
  Cl  Cl2       1.0  0.7507470544804831  0.750746882638475  0.2492530384990852  1.0000
  Cl  Cl3       1.0  0.7507470160062345  0.2492530370629321  0.2492530682259366  1.0000
  Cl  Cl4       1.0  0.24925305754546098  0.7507469693254496  0.7507469028510116  1.0000
  Cl  Cl5       1.0  0.24925306470265354  0.7507469342573635  0.24925307078387962  1.0000
  Cl  Cl6       1.0  0.7507469643143401  0.2492530812967682  0.7507468536168277  1.0000
