data_image0
_chemical_formula_structural       Sc2WF6
_chemical_formula_sum              "Sc2 W1 F6"
_cell_length_a       5.499308900795304
_cell_length_b       5.499308750480686
_cell_length_c       5.499308703050539
_cell_angle_alpha    60.00000253676838
_cell_angle_beta     60.000001417217135
_cell_angle_gamma    60.000003400897334

_space_group_name_H-M_alt    "P 1"
_space_group_IT_number       1

loop_
  _space_group_symop_operation_xyz
  'x, y, z'

loop_
  _atom_site_type_symbol
  _atom_site_label
  _atom_site_symmetry_multiplicity
  _atom_site_fract_x
  _atom_site_fract_y
  _atom_site_fract_z
  _atom_site_occupancy
  Sc  Sc1       1.0  0.24999962072980192  0.2500008063824705  0.24999975266403304  1.0000
  Sc  Sc2       1.0  0.7499991175297465  0.7500010673046045  0.750000642712082  1.0000
  W   W1        1.0  1.8199877478472662e-07  0.9999998886455694  0.9999999283096188  1.0000
  F   F1        1.0  0.2612415347570324  0.26124101580275255  0.7387586945103464  1.0000
  F   F2        1.0  0.7387592191687422  0.7387584014055213  0.2612406756609111  1.0000
  F   F3        1.0  0.7387587929642899  0.2612411629334096  0.2612410666055609  1.0000
  F   F4        1.0  0.26124167796514636  0.7387583032708206  0.7387589388128449  1.0000
  F   F5        1.0  0.26124139571701127  0.7387585231112033  0.26124116336162345  1.0000
  F   F6        1.0  0.738758498492017  0.26124079610515594  0.7387591184456307  1.0000
