data_image0
_chemical_formula_structural       Sc2WCl6
_chemical_formula_sum              "Sc2 W1 Cl6"
_cell_length_a       6.711951838527165
_cell_length_b       6.711951471791149
_cell_length_c       6.71195188947471
_cell_angle_alpha    59.99999963830719
_cell_angle_beta     59.99999957519352
_cell_angle_gamma    59.99999880619651

_space_group_name_H-M_alt    "P 1"
_space_group_IT_number       1

loop_
  _space_group_symop_operation_xyz
  'x, y, z'

loop_
  _atom_site_type_symbol
  _atom_site_label
  _atom_site_symmetry_multiplicity
  _atom_site_fract_x
  _atom_site_fract_y
  _atom_site_fract_z
  _atom_site_occupancy
  Sc  Sc1       1.0  0.24999984532035624  0.24999991813097702  0.24999998933690376  1.0000
  Sc  Sc2       1.0  0.7499998842707253  0.7499999532876847  0.7499997689024869  1.0000
  W   W1        1.0  1.233772066920944e-08  1.4597780674359286e-08  2.2289359197272455e-08  1.0000
  Cl  Cl1       1.0  0.2542427094637315  0.25424244619781544  0.7457575056276026  1.0000
  Cl  Cl2       1.0  0.7457573474647209  0.7457574909108702  0.2542427667706462  1.0000
  Cl  Cl3       1.0  0.745757498385177  0.2542425943716786  0.25424262381277024  1.0000
  Cl  Cl4       1.0  0.2542425779174554  0.745757439447296  0.7457574296362515  1.0000
  Cl  Cl5       1.0  0.2542425337623823  0.7457574351440712  0.25424261521267766  1.0000
  Cl  Cl6       1.0  0.7457575880329743  0.2542426789626914  0.7457572963824717  1.0000
