data_image0
_chemical_formula_structural       Sc2WI6
_chemical_formula_sum              "Sc2 W1 I6"
_cell_length_a       7.820589502961059
_cell_length_b       7.820589533764321
_cell_length_c       7.820589602367405
_cell_angle_alpha    60.00000014327761
_cell_angle_beta     60.00000022039794
_cell_angle_gamma    60.00000062121728

_space_group_name_H-M_alt    "P 1"
_space_group_IT_number       1

loop_
  _space_group_symop_operation_xyz
  'x, y, z'

loop_
  _atom_site_type_symbol
  _atom_site_label
  _atom_site_symmetry_multiplicity
  _atom_site_fract_x
  _atom_site_fract_y
  _atom_site_fract_z
  _atom_site_occupancy
  Sc  Sc1       1.0  0.250000040659092  0.2499999963405744  0.2499999590837707  1.0000
  Sc  Sc2       1.0  0.7499999835149419  0.7500000234748635  0.7500000225992545  1.0000
  W   W1        1.0  7.203311341141376e-09  9.396311140215174e-09  4.486948530388129e-09  1.0000
  I   I1        1.0  0.25011746312429856  0.2501174389471971  0.7498825558069996  1.0000
  I   I2        1.0  0.7498825124305671  0.7498825495472037  0.25011749014097123  1.0000
  I   I3        1.0  0.7498825155487453  0.2501174612195636  0.2501174903588803  1.0000
  I   I4        1.0  0.25011746043857347  0.7498825304069408  0.7498825128891813  1.0000
  I   I5        1.0  0.25011748107100845  0.7498825385577933  0.25011745024377763  1.0000
  I   I6        1.0  0.7498825393900737  0.2501174436724  0.7498825226787983  1.0000
