data_image0
_chemical_formula_structural       Sc2WBr6
_chemical_formula_sum              "Sc2 W1 Br6"
_cell_length_a       7.095577638358725
_cell_length_b       7.095577639788379
_cell_length_c       7.0955773938964155
_cell_angle_alpha    59.999998833371556
_cell_angle_beta     59.999997986260375
_cell_angle_gamma    59.9999996768577

_space_group_name_H-M_alt    "P 1"
_space_group_IT_number       1

loop_
  _space_group_symop_operation_xyz
  'x, y, z'

loop_
  _atom_site_type_symbol
  _atom_site_label
  _atom_site_symmetry_multiplicity
  _atom_site_fract_x
  _atom_site_fract_y
  _atom_site_fract_z
  _atom_site_occupancy
  Sc  Sc1       1.0  0.24999976225122802  0.24999989468303835  0.25000050832970794  1.0000
  Sc  Sc2       1.0  0.7499998038651481  0.7500001880609597  0.7500000729959582  1.0000
  W   W1        1.0  3.188991446711128e-08  0.9999999775611177  0.9999999797718692  1.0000
  Br  Br1       1.0  0.2534442839787445  0.2534441214210052  0.7465557284981373  1.0000
  Br  Br2       1.0  0.746555859438867  0.7465558404982505  0.25344414259889647  1.0000
  Br  Br3       1.0  0.746555935974748  0.2534441714114537  0.2534440799610733  1.0000
  Br  Br4       1.0  0.2534442080661265  0.746555871632994  0.7465557037538888  1.0000
  Br  Br5       1.0  0.25344423062358584  0.746555792383326  0.2534440660910021  1.0000
  Br  Br6       1.0  0.7465558936606613  0.2534441488231161  0.7465557164108212  1.0000
