data_image0
_chemical_formula_structural       Sc2YI6
_chemical_formula_sum              "Sc2 Y1 I6"
_cell_length_a       7.967481904208181
_cell_length_b       7.967482096203329
_cell_length_c       7.967481880925657
_cell_angle_alpha    60.00000053613368
_cell_angle_beta     60.00000137997565
_cell_angle_gamma    59.99999971008629

_space_group_name_H-M_alt    "P 1"
_space_group_IT_number       1

loop_
  _space_group_symop_operation_xyz
  'x, y, z'

loop_
  _atom_site_type_symbol
  _atom_site_label
  _atom_site_symmetry_multiplicity
  _atom_site_fract_x
  _atom_site_fract_y
  _atom_site_fract_z
  _atom_site_occupancy
  Sc  Sc1       1.0  0.2500000686618663  0.2499999987640266  0.24999995668193897  1.0000
  Sc  Sc2       1.0  0.7499999570483158  0.7500000039779788  0.7500000885694386  1.0000
  Y   Y1        1.0  9.19290953951867e-09  2.459486861924842e-08  1.8248958355388403e-08  1.0000
  I   I1        1.0  0.2595827358384643  0.25958281000571787  0.7404171948899099  1.0000
  I   I2        1.0  0.7404172695819841  0.7404171927362887  0.25958276009819836  1.0000
  I   I3        1.0  0.7404171978843608  0.25958276110048756  0.2595827659811082  1.0000
  I   I4        1.0  0.2595828003048386  0.7404172155094707  0.7404172182396656  1.0000
  I   I5        1.0  0.2595827823968894  0.7404172766664029  0.2595827375909741  1.0000
  I   I6        1.0  0.7404171836447068  0.25958271377816966  0.7404172608067005  1.0000
