data_image0
_chemical_formula_structural       Sc2YBr6
_chemical_formula_sum              "Sc2 Y1 Br6"
_cell_length_a       7.360172735319429
_cell_length_b       7.360172936367839
_cell_length_c       7.360173570147729
_cell_angle_alpha    60.000000415985646
_cell_angle_beta     59.999999531713115
_cell_angle_gamma    59.99999902328695

_space_group_name_H-M_alt    "P 1"
_space_group_IT_number       1

loop_
  _space_group_symop_operation_xyz
  'x, y, z'

loop_
  _atom_site_type_symbol
  _atom_site_label
  _atom_site_symmetry_multiplicity
  _atom_site_fract_x
  _atom_site_fract_y
  _atom_site_fract_z
  _atom_site_occupancy
  Sc  Sc1       1.0  0.24999973312313806  0.24999982423338044  0.2500004055547286  1.0000
  Sc  Sc2       1.0  0.7500000430051912  0.7500000151694693  0.7500000127541497  1.0000
  Y   Y1        1.0  4.0599760320309634e-08  9.984096881693341e-09  0.999999935306828  1.0000
  Br  Br1       1.0  0.25895186920529545  0.25895186702534473  0.7410481052784649  1.0000
  Br  Br2       1.0  0.7410482327814778  0.7410481337870866  0.2589518139676537  1.0000
  Br  Br3       1.0  0.7410481713867189  0.2589518575708432  0.2589517927227453  1.0000
  Br  Br4       1.0  0.25895183481857426  0.7410482846829844  0.7410480330429088  1.0000
  Br  Br5       1.0  0.258951855068916  0.7410481996075938  0.258951794738166  1.0000
  Br  Br6       1.0  0.741048232338703  0.25895179787680433  0.7410481117229282  1.0000
