data_image0
_chemical_formula_structural       Sc2YCl6
_chemical_formula_sum              "Sc2 Y1 Cl6"
_cell_length_a       7.068240712363285
_cell_length_b       7.068240220451791
_cell_length_c       7.068240411498776
_cell_angle_alpha    60.00000043814772
_cell_angle_beta     60.000001237012974
_cell_angle_gamma    60.00000184729213

_space_group_name_H-M_alt    "P 1"
_space_group_IT_number       1

loop_
  _space_group_symop_operation_xyz
  'x, y, z'

loop_
  _atom_site_type_symbol
  _atom_site_label
  _atom_site_symmetry_multiplicity
  _atom_site_fract_x
  _atom_site_fract_y
  _atom_site_fract_z
  _atom_site_occupancy
  Sc  Sc1       1.0  0.25000021326820826  0.2500001590385814  0.249999902943468  1.0000
  Sc  Sc2       1.0  0.7499997418685064  0.7499999902147323  0.7499998678771814  1.0000
  Y   Y1        1.0  0.9999999937287015  4.331859282229006e-08  2.5334510574516237e-08  1.0000
  Cl  Cl1       1.0  0.2584057266057058  0.25840555259685605  0.741594324255359  1.0000
  Cl  Cl2       1.0  0.7415942966685847  0.741594421649349  0.25840564996665727  1.0000
  Cl  Cl3       1.0  0.7415943233993733  0.2584056096704945  0.25840572845149257  1.0000
  Cl  Cl4       1.0  0.25840579728502394  0.7415942536801194  0.7415944053094259  1.0000
  Cl  Cl5       1.0  0.2584056664151665  0.7415942322083537  0.2584056988174517  1.0000
  Cl  Cl6       1.0  0.7415942415469163  0.25840573510687403  0.7415943945321071  1.0000
