data_image0
_chemical_formula_structural       Sc2ZrF6
_chemical_formula_sum              "Sc2 Zr1 F6"
_cell_length_a       5.6490785820305796
_cell_length_b       5.649079604493233
_cell_length_c       5.649079117691261
_cell_angle_alpha    60.000006267352305
_cell_angle_beta     60.00000380390787
_cell_angle_gamma    60.00000815022677

_space_group_name_H-M_alt    "P 1"
_space_group_IT_number       1

loop_
  _space_group_symop_operation_xyz
  'x, y, z'

loop_
  _atom_site_type_symbol
  _atom_site_label
  _atom_site_symmetry_multiplicity
  _atom_site_fract_x
  _atom_site_fract_y
  _atom_site_fract_z
  _atom_site_occupancy
  Sc  Sc1       1.0  0.2500003445338231  0.25000052745051626  0.2500005662421663  1.0000
  Sc  Sc2       1.0  0.7500006041139897  0.7499997004901732  0.7500001176716156  1.0000
  Zr  Zr1       1.0  0.9999999543081838  2.168039879526994e-09  0.9999998288100831  1.0000
  F   F1        1.0  0.26484579941023906  0.26484601550660214  0.7351537065352829  1.0000
  F   F2        1.0  0.7351542148441397  0.7351538330265226  0.2648458003517128  1.0000
  F   F3        1.0  0.7351536377160114  0.26484570126839174  0.26484604543845003  1.0000
  F   F4        1.0  0.2648461459325951  0.7351541277523457  0.735153864429017  1.0000
  F   F5        1.0  0.26484570982876326  0.7351538595373285  0.26484600977295747  1.0000
  F   F6        1.0  0.735153756000007  0.2648460215164379  0.7351541586720995  1.0000
