data_image0
_chemical_formula_structural       Sc2ZrBr6
_chemical_formula_sum              "Sc2 Zr1 Br6"
_cell_length_a       7.301097154669736
_cell_length_b       7.301096557069544
_cell_length_c       7.301096744709815
_cell_angle_alpha    60.00000181343523
_cell_angle_beta     60.00000025188475
_cell_angle_gamma    60.00000082470995

_space_group_name_H-M_alt    "P 1"
_space_group_IT_number       1

loop_
  _space_group_symop_operation_xyz
  'x, y, z'

loop_
  _atom_site_type_symbol
  _atom_site_label
  _atom_site_symmetry_multiplicity
  _atom_site_fract_x
  _atom_site_fract_y
  _atom_site_fract_z
  _atom_site_occupancy
  Sc  Sc1       1.0  0.24999989624026067  0.250000201809733  0.24999996086943757  1.0000
  Sc  Sc2       1.0  0.7500000219910773  0.7499999092747116  0.74999997502267  1.0000
  Zr  Zr1       1.0  0.9999999724257372  6.374426536980217e-08  0.999999962739799  1.0000
  Br  Br1       1.0  0.2527969401407617  0.25279699631531544  0.7472029838406109  1.0000
  Br  Br2       1.0  0.7472030663885065  0.7472029352786976  0.25279704421608884  1.0000
  Br  Br3       1.0  0.7472030549755165  0.25279698082409685  0.25279696906528915  1.0000
  Br  Br4       1.0  0.252796986059906  0.747202965867243  0.74720303418967  1.0000
  Br  Br5       1.0  0.25279703835914713  0.7472029563264204  0.2527969973559322  1.0000
  Br  Br6       1.0  0.7472030097534825  0.2527969786225572  0.747203082193095  1.0000
