data_image0
_chemical_formula_structural       Sc2ZrCl6
_chemical_formula_sum              "Sc2 Zr1 Cl6"
_cell_length_a       7.060431969297232
_cell_length_b       7.060432338219821
_cell_length_c       7.060431808708207
_cell_angle_alpha    60.00000233246402
_cell_angle_beta     59.99999988354833
_cell_angle_gamma    60.0000026167399

_space_group_name_H-M_alt    "P 1"
_space_group_IT_number       1

loop_
  _space_group_symop_operation_xyz
  'x, y, z'

loop_
  _atom_site_type_symbol
  _atom_site_label
  _atom_site_symmetry_multiplicity
  _atom_site_fract_x
  _atom_site_fract_y
  _atom_site_fract_z
  _atom_site_occupancy
  Sc  Sc1       1.0  0.24999974095287383  0.24999954854984627  0.25000038245317757  1.0000
  Sc  Sc2       1.0  0.7499998251722595  0.7500003369428653  0.7499994212713619  1.0000
  Zr  Zr1       1.0  8.573800723655901e-08  0.9999999635721445  6.882362544057571e-08  1.0000
  Cl  Cl1       1.0  0.25178957883273645  0.25178945983111695  0.7482105327363512  1.0000
  Cl  Cl2       1.0  0.7482105459029708  0.7482106633099946  0.2517895668672417  1.0000
  Cl  Cl3       1.0  0.7482106220955929  0.25178940212918405  0.25178947713264666  1.0000
  Cl  Cl4       1.0  0.25178958028595905  0.7482105371379871  0.7482105084564055  1.0000
  Cl  Cl5       1.0  0.2517894580431582  0.7482104704263179  0.2517895347948538  1.0000
  Cl  Cl6       1.0  0.7482105904214943  0.25178962149091627  0.7482104825871845  1.0000
