data_image0
_chemical_formula_structural       Se2AsF6
_chemical_formula_sum              "Se2 As1 F6"
_cell_length_a       5.298022176968775
_cell_length_b       5.298022355768845
_cell_length_c       5.298022277599171
_cell_angle_alpha    59.999997765270436
_cell_angle_beta     59.99999956685229
_cell_angle_gamma    59.99999725016954

_space_group_name_H-M_alt    "P 1"
_space_group_IT_number       1

loop_
  _space_group_symop_operation_xyz
  'x, y, z'

loop_
  _atom_site_type_symbol
  _atom_site_label
  _atom_site_symmetry_multiplicity
  _atom_site_fract_x
  _atom_site_fract_y
  _atom_site_fract_z
  _atom_site_occupancy
  Se  Se1       1.0  0.24999999534049713  0.25000002815261546  0.24999997049189074  1.0000
  Se  Se2       1.0  0.7499999713165555  0.7500000174184852  0.7500000316226871  1.0000
  As  As1       1.0  0.9999999839729776  2.31170164490396e-09  3.139511848504636e-08  1.0000
  F   F1        1.0  0.24821439646646576  0.24821443987113972  0.7517855832052998  1.0000
  F   F2        1.0  0.7517856235561025  0.7517855502191106  0.24821442374194036  1.0000
  F   F3        1.0  0.7517855797000296  0.24821442648822178  0.24821440619119492  1.0000
  F   F4        1.0  0.24821444956934713  0.7517855358616051  0.7517855722529176  1.0000
  F   F5        1.0  0.24821442275585492  0.7517855610232115  0.248214436490701  1.0000
  F   F6        1.0  0.7517855800724971  0.24821445449576277  0.7517855361393362  1.0000
