data_image0
_chemical_formula_structural       Se2AsBr6
_chemical_formula_sum              "Se2 As1 Br6"
_cell_length_a       7.298363389021064
_cell_length_b       7.298363235188197
_cell_length_c       7.2983632764983515
_cell_angle_alpha    59.99999879310696
_cell_angle_beta     60.000000649494346
_cell_angle_gamma    59.99999803637002

_space_group_name_H-M_alt    "P 1"
_space_group_IT_number       1

loop_
  _space_group_symop_operation_xyz
  'x, y, z'

loop_
  _atom_site_type_symbol
  _atom_site_label
  _atom_site_symmetry_multiplicity
  _atom_site_fract_x
  _atom_site_fract_y
  _atom_site_fract_z
  _atom_site_occupancy
  Se  Se1       1.0  0.2499999189293873  0.24999995803592623  0.25000004091188605  1.0000
  Se  Se2       1.0  0.7499999825509536  0.750000065412201  0.7499998977600072  1.0000
  As  As1       1.0  3.562135158163111e-08  4.027461543435389e-08  0.9999999565713353  1.0000
  Br  Br1       1.0  0.2518595584693761  0.25185957529903946  0.7481404099975175  1.0000
  Br  Br2       1.0  0.7481403892302364  0.7481403474625465  0.25185966826196937  1.0000
  Br  Br3       1.0  0.7481404542486266  0.25185956025133094  0.25185961575083454  1.0000
  Br  Br4       1.0  0.2518596116943804  0.7481404397032665  0.7481404100060659  1.0000
  Br  Br5       1.0  0.2518596353508666  0.7481404188516485  0.25185958059066954  1.0000
  Br  Br6       1.0  0.7481404170877621  0.25185959788403944  0.7481404147543002  1.0000
