data_image0
_chemical_formula_structural       Se2AsCl6
_chemical_formula_sum              "Se2 As1 Cl6"
_cell_length_a       6.628317291980883
_cell_length_b       6.628317154170231
_cell_length_c       6.628317048587751
_cell_angle_alpha    59.9999993173019
_cell_angle_beta     60.0000006279351
_cell_angle_gamma    59.99999848399461

_space_group_name_H-M_alt    "P 1"
_space_group_IT_number       1

loop_
  _space_group_symop_operation_xyz
  'x, y, z'

loop_
  _atom_site_type_symbol
  _atom_site_label
  _atom_site_symmetry_multiplicity
  _atom_site_fract_x
  _atom_site_fract_y
  _atom_site_fract_z
  _atom_site_occupancy
  Se  Se1       1.0  0.24999999805500794  0.25000001680800954  0.2499999885266407  1.0000
  Se  Se2       1.0  0.7500000570578134  0.7499999192340369  0.7499999695549523  1.0000
  As  As1       1.0  0.9999998945608779  0.9999999870657758  1.376379602965216e-07  1.0000
  Cl  Cl1       1.0  0.25159768330896165  0.25159765754242186  0.7484024078402822  1.0000
  Cl  Cl2       1.0  0.7484023823075706  0.7484023671914487  0.25159758814690053  1.0000
  Cl  Cl3       1.0  0.7484023190570847  0.2515976846936079  0.25159766405380407  1.0000
  Cl  Cl4       1.0  0.25159770269062687  0.7484023566699819  0.7484022188239283  1.0000
  Cl  Cl5       1.0  0.25159764036071347  0.748402244125181  0.2515977394517356  1.0000
  Cl  Cl6       1.0  0.7484023174587097  0.2515977695222129  0.748402285803669  1.0000
