data_image0
_chemical_formula_structural       Se2AsI6
_chemical_formula_sum              "Se2 As1 I6"
_cell_length_a       7.632056856130405
_cell_length_b       7.632057061071782
_cell_length_c       7.632056886773226
_cell_angle_alpha    60.00000069440357
_cell_angle_beta     60.00000131167642
_cell_angle_gamma    59.99999928903871

_space_group_name_H-M_alt    "P 1"
_space_group_IT_number       1

loop_
  _space_group_symop_operation_xyz
  'x, y, z'

loop_
  _atom_site_type_symbol
  _atom_site_label
  _atom_site_symmetry_multiplicity
  _atom_site_fract_x
  _atom_site_fract_y
  _atom_site_fract_z
  _atom_site_occupancy
  Se  Se1       1.0  0.24999996398764532  0.249999981016454  0.25000004015013577  1.0000
  Se  Se2       1.0  0.7500000046850603  0.7500000088436003  0.7499999774714535  1.0000
  As  As1       1.0  2.7233299591591884e-08  0.9999999999999997  0.999999949695993  1.0000
  I   I1        1.0  0.26111641098892313  0.26111639924194546  0.738883586245037  1.0000
  I   I2        1.0  0.7388835983501797  0.7388836002465333  0.2611164127804554  1.0000
  I   I3        1.0  0.7388835932765581  0.2611163897858503  0.2611164121881123  1.0000
  I   I4        1.0  0.2611163875758669  0.7388836225405294  0.7388836234875491  1.0000
  I   I5        1.0  0.2611163927396186  0.7388835998032729  0.261116400701471  1.0000
  I   I6        1.0  0.7388836191822707  0.2611163964757307  0.7388835999476286  1.0000
