data_image0
_chemical_formula_structural       Se2AsCl6
_chemical_formula_sum              "Se2 As1 Cl6"
_cell_length_a       6.627819943414137
_cell_length_b       6.6278198125617145
_cell_length_c       6.627820020866514
_cell_angle_alpha    59.99999910900912
_cell_angle_beta     59.99999734684634
_cell_angle_gamma    60.00000018473885

_space_group_name_H-M_alt    "P 1"
_space_group_IT_number       1

loop_
  _space_group_symop_operation_xyz
  'x, y, z'

loop_
  _atom_site_type_symbol
  _atom_site_label
  _atom_site_symmetry_multiplicity
  _atom_site_fract_x
  _atom_site_fract_y
  _atom_site_fract_z
  _atom_site_occupancy
  Se  Se1       1.0  0.2499999230389422  0.2500002421710228  0.24999993294240175  1.0000
  Se  Se2       1.0  0.7500000447324646  0.7499999467056044  0.7499998879736063  1.0000
  As  As1       1.0  2.9792547191293728e-08  5.174077995827049e-08  0.9999999305662932  1.0000
  Cl  Cl1       1.0  0.25160627278534753  0.25160632732307636  0.7483936429800884  1.0000
  Cl  Cl2       1.0  0.7483936971722311  0.7483936250242719  0.25160628605472257  1.0000
  Cl  Cl3       1.0  0.7483937419945024  0.25160626243596185  0.25160630592577127  1.0000
  Cl  Cl4       1.0  0.25160628774450394  0.7483936307790701  0.7483938566472005  1.0000
  Cl  Cl5       1.0  0.25160628880427505  0.7483936145995946  0.25160640775322946  1.0000
  Cl  Cl6       1.0  0.7483937153995213  0.25160630818159646  0.7483937437515177  1.0000
