data_image0
_chemical_formula_structural       Se2AsF6
_chemical_formula_sum              "Se2 As1 F6"
_cell_length_a       5.2980278270832954
_cell_length_b       5.298027920146485
_cell_length_c       5.2980279727105914
_cell_angle_alpha    59.999999523983576
_cell_angle_beta     59.99999876152185
_cell_angle_gamma    59.9999996946321

_space_group_name_H-M_alt    "P 1"
_space_group_IT_number       1

loop_
  _space_group_symop_operation_xyz
  'x, y, z'

loop_
  _atom_site_type_symbol
  _atom_site_label
  _atom_site_symmetry_multiplicity
  _atom_site_fract_x
  _atom_site_fract_y
  _atom_site_fract_z
  _atom_site_occupancy
  Se  Se1       1.0  0.24999987144600513  0.25000011997434923  0.25000003427638606  1.0000
  Se  Se2       1.0  0.7499999503575068  0.7500001495583885  0.7499999739394251  1.0000
  As  As1       1.0  2.540601214742447e-08  0.9999999630128072  0.9999999869156427  1.0000
  F   F1        1.0  0.24821285014952443  0.2482128223220023  0.7517871717952417  1.0000
  F   F2        1.0  0.7517871624861778  0.7517871166376999  0.24821286287861263  1.0000
  F   F3        1.0  0.7517871719350645  0.24821279613725594  0.24821279230995075  1.0000
  F   F4        1.0  0.2482128834103723  0.751787112770352  0.7517871548728089  1.0000
  F   F5        1.0  0.24821289000579266  0.7517871176111366  0.2482128487277844  1.0000
  F   F6        1.0  0.7517872032937706  0.24821278204967318  0.7517871784760486  1.0000
