data_image0
_chemical_formula_structural       Se2AsBr6
_chemical_formula_sum              "Se2 As1 Br6"
_cell_length_a       7.298276396150365
_cell_length_b       7.29827648923082
_cell_length_c       7.298276404283035
_cell_angle_alpha    60.00000120308198
_cell_angle_beta     60.00000139616967
_cell_angle_gamma    60.00000046321829

_space_group_name_H-M_alt    "P 1"
_space_group_IT_number       1

loop_
  _space_group_symop_operation_xyz
  'x, y, z'

loop_
  _atom_site_type_symbol
  _atom_site_label
  _atom_site_symmetry_multiplicity
  _atom_site_fract_x
  _atom_site_fract_y
  _atom_site_fract_z
  _atom_site_occupancy
  Se  Se1       1.0  0.24999992475996966  0.2500000528343568  0.2499999767973259  1.0000
  Se  Se2       1.0  0.7499999504613283  0.7499999906901813  0.7499999974574131  1.0000
  As  As1       1.0  0.9999999944062371  1.6781288913485632e-08  5.3677292586482645e-09  1.0000
  Br  Br1       1.0  0.25186140691212877  0.25186137489622584  0.7481386114235878  1.0000
  Br  Br2       1.0  0.7481386470160144  0.7481384789997473  0.2518613888448096  1.0000
  Br  Br3       1.0  0.7481385821129236  0.2518614361117117  0.2518614217972934  1.0000
  Br  Br4       1.0  0.25186143836225716  0.748138651044177  0.7481385744806855  1.0000
  Br  Br5       1.0  0.25186146183214275  0.7481385971072557  0.25186140735448503  1.0000
  Br  Br6       1.0  0.7481385909908901  0.251861397751544  0.7481386230086717  1.0000
