data_image0
_chemical_formula_structural       Se2AsS6
_chemical_formula_sum              "Se2 As1 S6"
_cell_length_a       6.367615123753372
_cell_length_b       6.3676150637391435
_cell_length_c       6.367615147503647
_cell_angle_alpha    60.00000174015372
_cell_angle_beta     59.99999985738871
_cell_angle_gamma    60.000001559326655

_space_group_name_H-M_alt    "P 1"
_space_group_IT_number       1

loop_
  _space_group_symop_operation_xyz
  'x, y, z'

loop_
  _atom_site_type_symbol
  _atom_site_label
  _atom_site_symmetry_multiplicity
  _atom_site_fract_x
  _atom_site_fract_y
  _atom_site_fract_z
  _atom_site_occupancy
  Se  Se1       1.0  0.25000050866399287  0.25000032436825353  0.24999928701300914  1.0000
  Se  Se2       1.0  0.7499999772394208  0.7500000594914268  0.7499996057580192  1.0000
  As  As1       1.0  2.0167353356047515e-08  0.9999999884596215  3.5387457406439416e-09  1.0000
  S   S1        1.0  0.261910768722131  0.2619107349433714  0.7380893313493465  1.0000
  S   S2        1.0  0.7380892516039489  0.7380892123053227  0.26191085898658967  1.0000
  S   S3        1.0  0.738089136198681  0.26191065296258814  0.2619109047296212  1.0000
  S   S4        1.0  0.2619107420635167  0.7380890730955091  0.738089490790251  1.0000
  S   S5        1.0  0.2619105475036047  0.7380891728754125  0.2619109737158655  1.0000
  S   S6        1.0  0.7380890332296015  0.2619107820668662  0.7380895519236623  1.0000
