data_image0
_chemical_formula_structural       Se2AsI6
_chemical_formula_sum              "Se2 As1 I6"
_cell_length_a       7.632082926700381
_cell_length_b       7.6320829407790685
_cell_length_c       7.632083025789268
_cell_angle_alpha    59.999998735555536
_cell_angle_beta     59.99999978316207
_cell_angle_gamma    60.000000189462

_space_group_name_H-M_alt    "P 1"
_space_group_IT_number       1

loop_
  _space_group_symop_operation_xyz
  'x, y, z'

loop_
  _atom_site_type_symbol
  _atom_site_label
  _atom_site_symmetry_multiplicity
  _atom_site_fract_x
  _atom_site_fract_y
  _atom_site_fract_z
  _atom_site_occupancy
  Se  Se1       1.0  0.2500000150209453  0.2500000273623027  0.24999997451749942  1.0000
  Se  Se2       1.0  0.7500000111983566  0.7500000066644967  0.7499999939190436  1.0000
  As  As1       1.0  0.9999999746468533  0.9999999807432138  3.9338324218634426e-08  1.0000
  I   I1        1.0  0.2611160139311401  0.26111600959341913  0.7388839913717149  1.0000
  I   I2        1.0  0.7388840082999507  0.7388839955482015  0.26111601184513905  1.0000
  I   I3        1.0  0.738883975145659  0.26111601508781435  0.2611160260192281  1.0000
  I   I4        1.0  0.2611160345543957  0.7388839595638957  0.7388839659516425  1.0000
  I   I5        1.0  0.2611160047197208  0.7388839824525864  0.2611160340289219  1.0000
  I   I6        1.0  0.7388839645579112  0.26111602268903406  0.7388839681492376  1.0000
