data_image0
_chemical_formula_structural       Se2BiCl6
_chemical_formula_sum              "Se2 Bi1 Cl6"
_cell_length_a       6.847451936063362
_cell_length_b       6.847452036089633
_cell_length_c       6.847451764501508
_cell_angle_alpha    59.9999988337367
_cell_angle_beta     59.999998004210454
_cell_angle_gamma    59.999999599278105

_space_group_name_H-M_alt    "P 1"
_space_group_IT_number       1

loop_
  _space_group_symop_operation_xyz
  'x, y, z'

loop_
  _atom_site_type_symbol
  _atom_site_label
  _atom_site_symmetry_multiplicity
  _atom_site_fract_x
  _atom_site_fract_y
  _atom_site_fract_z
  _atom_site_occupancy
  Se  Se1       1.0  0.2499999807560872  0.24999994146195662  0.2500000767362458  1.0000
  Se  Se2       1.0  0.7499998505725859  0.7500000640601507  0.7500001167887057  1.0000
  Bi  Bi1       1.0  7.244463433675602e-08  0.9999999445529657  0.999999963753651  1.0000
  Cl  Cl1       1.0  0.26746559005310766  0.2674656164917445  0.732534372207493  1.0000
  Cl  Cl2       1.0  0.7325344065350777  0.7325343890303655  0.26746561747472236  1.0000
  Cl  Cl3       1.0  0.7325344987293068  0.26746556296004703  0.26746551975114774  1.0000
  Cl  Cl4       1.0  0.2674655331517858  0.732534478334342  0.732534533705489  1.0000
  Cl  Cl5       1.0  0.26746560589501095  0.7325344667616029  0.26746545998959403  1.0000
  Cl  Cl6       1.0  0.7325344653852375  0.2674655423377383  0.7325343299142708  1.0000
