data_image0
_chemical_formula_structural       Se2BiI6
_chemical_formula_sum              "Se2 Bi1 I6"
_cell_length_a       7.888859166011197
_cell_length_b       7.8888591138277695
_cell_length_c       7.888859104441193
_cell_angle_alpha    60.00000051242116
_cell_angle_beta     59.99999906711888
_cell_angle_gamma    59.999999617212644

_space_group_name_H-M_alt    "P 1"
_space_group_IT_number       1

loop_
  _space_group_symop_operation_xyz
  'x, y, z'

loop_
  _atom_site_type_symbol
  _atom_site_label
  _atom_site_symmetry_multiplicity
  _atom_site_fract_x
  _atom_site_fract_y
  _atom_site_fract_z
  _atom_site_occupancy
  Se  Se1       1.0  0.24999996890083565  0.2500000021476337  0.2500000001616121  1.0000
  Se  Se2       1.0  0.7500000265796523  0.7499999629729188  0.749999991436293  1.0000
  Bi  Bi1       1.0  0.9999999893405486  0.9999999705025132  1.0627597763583612e-07  1.0000
  I   I1        1.0  0.27334111889971074  0.2733411454157466  0.7266588797397967  1.0000
  I   I2        1.0  0.7266588887039369  0.726658849202294  0.2733411417522013  1.0000
  I   I3        1.0  0.7266589157220722  0.2733411179700991  0.2733410842358226  1.0000
  I   I4        1.0  0.273341157497413  0.7266588642279461  0.726658866291889  1.0000
  I   I5        1.0  0.27334109085736286  0.7266589311716409  0.27334105774027906  1.0000
  I   I6        1.0  0.7266588552983015  0.27334116435885697  0.7266588603571954  1.0000
