data_image0
_chemical_formula_structural       Se2BiF6
_chemical_formula_sum              "Se2 Bi1 F6"
_cell_length_a       6.213341658563354
_cell_length_b       6.213340181601216
_cell_length_c       6.213340950264241
_cell_angle_alpha    59.99999260015809
_cell_angle_beta     59.999999723782075
_cell_angle_gamma    59.99999714245797

_space_group_name_H-M_alt    "P 1"
_space_group_IT_number       1

loop_
  _space_group_symop_operation_xyz
  'x, y, z'

loop_
  _atom_site_type_symbol
  _atom_site_label
  _atom_site_symmetry_multiplicity
  _atom_site_fract_x
  _atom_site_fract_y
  _atom_site_fract_z
  _atom_site_occupancy
  Se  Se1       1.0  0.25000018847255123  0.24999938498381252  0.25000042870002903  1.0000
  Se  Se2       1.0  0.7499999161190072  0.7500001418745675  0.7500001473313104  1.0000
  Bi  Bi1       1.0  0.9999999729128087  0.9999999586057645  1.0505607903841364e-07  1.0000
  F   F1        1.0  0.23858592237665516  0.23858611016662315  0.7614137901672203  1.0000
  F   F2        1.0  0.7614138722608575  0.7614140454898589  0.23858584264476226  1.0000
  F   F3        1.0  0.7614137701092186  0.23858621747116954  0.23858598997861585  1.0000
  F   F4        1.0  0.23858601346781466  0.7614141609256978  0.7614138717569467  1.0000
  F   F5        1.0  0.2385861668529694  0.7614138985427196  0.23858599583915757  1.0000
  F   F6        1.0  0.7614141600467335  0.2385860875945453  0.761413853133028  1.0000
