data_image0
_chemical_formula_structural       Se2BiBr6
_chemical_formula_sum              "Se2 Bi1 Br6"
_cell_length_a       7.376858542986695
_cell_length_b       7.37685834600833
_cell_length_c       7.376858602940253
_cell_angle_alpha    59.9999995267161
_cell_angle_beta     60.00000032984204
_cell_angle_gamma    60.0000004966601

_space_group_name_H-M_alt    "P 1"
_space_group_IT_number       1

loop_
  _space_group_symop_operation_xyz
  'x, y, z'

loop_
  _atom_site_type_symbol
  _atom_site_label
  _atom_site_symmetry_multiplicity
  _atom_site_fract_x
  _atom_site_fract_y
  _atom_site_fract_z
  _atom_site_occupancy
  Se  Se1       1.0  0.2500000156211903  0.24999998480261837  0.24999997217959227  1.0000
  Se  Se2       1.0  0.7500001275322022  0.7499999378053299  0.7499999373737565  1.0000
  Bi  Bi1       1.0  0.9999999539578971  6.64100998960668e-09  0.9999999993666877  1.0000
  Br  Br1       1.0  0.26451089813085893  0.2645109214590968  0.7354890923603269  1.0000
  Br  Br2       1.0  0.735489083256592  0.7354891389498214  0.2645108955994458  1.0000
  Br  Br3       1.0  0.7354890777492642  0.26451091785801545  0.2645108974318667  1.0000
  Br  Br4       1.0  0.26451082462980813  0.7354891541726704  0.7354891472662509  1.0000
  Br  Br5       1.0  0.2645108752622571  0.7354890735817422  0.26451092245447627  1.0000
  Br  Br6       1.0  0.7354891423821881  0.26451086396847884  0.735489129140006  1.0000
