data_image0
_chemical_formula_structural       Se2BI6
_chemical_formula_sum              "Se2 B1 I6"
_cell_length_a       7.328880915585982
_cell_length_b       7.328880896277789
_cell_length_c       7.328880884177649
_cell_angle_alpha    60.000001131744426
_cell_angle_beta     60.000001390753724
_cell_angle_gamma    60.000002165758794

_space_group_name_H-M_alt    "P 1"
_space_group_IT_number       1

loop_
  _space_group_symop_operation_xyz
  'x, y, z'

loop_
  _atom_site_type_symbol
  _atom_site_label
  _atom_site_symmetry_multiplicity
  _atom_site_fract_x
  _atom_site_fract_y
  _atom_site_fract_z
  _atom_site_occupancy
  Se  Se1       1.0  0.2500000312097485  0.24999996220494333  0.249999999215756  1.0000
  Se  Se2       1.0  0.7499999547870474  0.7500000620825582  0.7500000502866728  1.0000
  B   B1        1.0  6.663449072687587e-08  3.3422426123329906e-09  0.9999998408453371  1.0000
  I   I1        1.0  0.24530295449540654  0.24530294039811212  0.7546970658468001  1.0000
  I   I2        1.0  0.7546970561067389  0.7546970053466912  0.2453029669614292  1.0000
  I   I3        1.0  0.7546970163177598  0.24530298507781506  0.24530297436302353  1.0000
  I   I4        1.0  0.2453029236850219  0.7546970826588377  0.7546970627671888  1.0000
  I   I5        1.0  0.24530295935182767  0.7546970320515736  0.24530296914623867  1.0000
  I   I6        1.0  0.7546970497703425  0.24530290867986626  0.7546970696375894  1.0000
