data_image0
_chemical_formula_structural       Se2BF6
_chemical_formula_sum              "Se2 B1 F6"
_cell_length_a       4.966946999506781
_cell_length_b       4.966947139395948
_cell_length_c       4.96694709442176
_cell_angle_alpha    59.99999964414903
_cell_angle_beta     59.999999932550836
_cell_angle_gamma    60.00000025155181

_space_group_name_H-M_alt    "P 1"
_space_group_IT_number       1

loop_
  _space_group_symop_operation_xyz
  'x, y, z'

loop_
  _atom_site_type_symbol
  _atom_site_label
  _atom_site_symmetry_multiplicity
  _atom_site_fract_x
  _atom_site_fract_y
  _atom_site_fract_z
  _atom_site_occupancy
  Se  Se1       1.0  0.2500005069153019  0.24999977600978354  0.2499998830873479  1.0000
  Se  Se2       1.0  0.7500003531635838  0.749999803926824  0.750000210528539  1.0000
  B   B1        1.0  4.74345545401773e-07  7.643949271969112e-08  0.9999995132100226  1.0000
  F   F1        1.0  0.23428557690702465  0.234285900441476  0.7657142039022679  1.0000
  F   F2        1.0  0.765713894385982  0.7657140518294302  0.2342859610513174  1.0000
  F   F3        1.0  0.7657138499262276  0.23428598173659018  0.2342860008764606  1.0000
  F   F4        1.0  0.23428565181828243  0.7657142836896481  0.7657141412585821  1.0000
  F   F5        1.0  0.2342857916832721  0.7657142246613238  0.2342858512894479  1.0000
  F   F6        1.0  0.7657139013289802  0.23428588542014298  0.7657142406711647  1.0000
