data_image0
_chemical_formula_structural       Se2BBr6
_chemical_formula_sum              "Se2 B1 Br6"
_cell_length_a       7.151668836385761
_cell_length_b       7.1516689097572845
_cell_length_c       7.151668965276535
_cell_angle_alpha    59.99999969051336
_cell_angle_beta     59.999999994515626
_cell_angle_gamma    60.000001284400966

_space_group_name_H-M_alt    "P 1"
_space_group_IT_number       1

loop_
  _space_group_symop_operation_xyz
  'x, y, z'

loop_
  _atom_site_type_symbol
  _atom_site_label
  _atom_site_symmetry_multiplicity
  _atom_site_fract_x
  _atom_site_fract_y
  _atom_site_fract_z
  _atom_site_occupancy
  Se  Se1       1.0  0.25000006245705725  0.2500000763460297  0.24999985993402973  1.0000
  Se  Se2       1.0  0.7499999442091829  0.7499999413330186  0.7500000675613445  1.0000
  B   B1        1.0  7.110337247942755e-09  2.22628919086854e-08  6.920988609541521e-08  1.0000
  Br  Br1       1.0  0.2292274510230721  0.2292274246188238  0.7707725525853618  1.0000
  Br  Br2       1.0  0.770772534866198  0.7707725536720305  0.22922744274601978  1.0000
  Br  Br3       1.0  0.7707725092456857  0.2292274725720348  0.22922745505885092  1.0000
  Br  Br4       1.0  0.2292274946810826  0.770772519419061  0.7707725467760611  1.0000
  Br  Br5       1.0  0.22922749114282825  0.7707725106760901  0.22922744661990277  1.0000
  Br  Br6       1.0  0.7707724992963852  0.22922748302753582  0.7707725513145964  1.0000
