data_image0
_chemical_formula_structural       Se2BCl6
_chemical_formula_sum              "Se2 B1 Cl6"
_cell_length_a       6.674881547666831
_cell_length_b       6.674881304759935
_cell_length_c       6.67488166605176
_cell_angle_alpha    59.99999396739151
_cell_angle_beta     59.99999787186328
_cell_angle_gamma    59.99999705239383

_space_group_name_H-M_alt    "P 1"
_space_group_IT_number       1

loop_
  _space_group_symop_operation_xyz
  'x, y, z'

loop_
  _atom_site_type_symbol
  _atom_site_label
  _atom_site_symmetry_multiplicity
  _atom_site_fract_x
  _atom_site_fract_y
  _atom_site_fract_z
  _atom_site_occupancy
  Se  Se1       1.0  0.2500000973242974  0.25000002573392593  0.2500000154813773  1.0000
  Se  Se2       1.0  0.7499999363652002  0.749999825826444  0.7500000113528753  1.0000
  B   B1        1.0  0.9999989389062804  0.9999993688093542  5.689837437734729e-07  1.0000
  Cl  Cl1       1.0  0.2181591895305236  0.218159327915949  0.7818408357053521  1.0000
  Cl  Cl2       1.0  0.7818414824296746  0.7818415254760857  0.2181585193949144  1.0000
  Cl  Cl3       1.0  0.7818410114575116  0.21815902160995437  0.21815894303264835  1.0000
  Cl  Cl4       1.0  0.21815898118150545  0.7818410776560413  0.7818410958318747  1.0000
  Cl  Cl5       1.0  0.21815909708181558  0.7818409326731411  0.21815897063786954  1.0000
  Cl  Cl6       1.0  0.7818412239661349  0.21815893907064712  0.7818410627279109  1.0000
