data_image0
_chemical_formula_structural       Se2CF6
_chemical_formula_sum              "Se2 C1 F6"
_cell_length_a       5.426182180891468
_cell_length_b       5.426182023959497
_cell_length_c       5.426181503189242
_cell_angle_alpha    60.00000085807221
_cell_angle_beta     60.00000090329185
_cell_angle_gamma    60.0000005003316

_space_group_name_H-M_alt    "P 1"
_space_group_IT_number       1

loop_
  _space_group_symop_operation_xyz
  'x, y, z'

loop_
  _atom_site_type_symbol
  _atom_site_label
  _atom_site_symmetry_multiplicity
  _atom_site_fract_x
  _atom_site_fract_y
  _atom_site_fract_z
  _atom_site_occupancy
  Se  Se1       1.0  0.2500001967028635  0.24999990952675116  0.2499997868386659  1.0000
  Se  Se2       1.0  0.7500001002920686  0.7500001574297068  0.7499998296136887  1.0000
  C   C1        1.0  2.863046015861289e-08  6.094176678934159e-08  0.9999998814972205  1.0000
  F   F1        1.0  0.20772363015868214  0.20772371019229632  0.7922763537044719  1.0000
  F   F2        1.0  0.792276224640362  0.7922762597087514  0.20772380328228546  1.0000
  F   F3        1.0  0.7922762056829081  0.20772372146183635  0.20772385346623887  1.0000
  F   F4        1.0  0.20772365747696728  0.7922762935812595  0.7922763099415766  1.0000
  F   F5        1.0  0.20772373452009055  0.7922762024900394  0.20772382491652497  1.0000
  F   F6        1.0  0.7922762462413319  0.20772370872634513  0.792276338975538  1.0000
