data_image0
_chemical_formula_structural       Se2CrCl6
_chemical_formula_sum              "Se2 Cr1 Cl6"
_cell_length_a       6.664613314183447
_cell_length_b       6.664613273984528
_cell_length_c       6.664613149129034
_cell_angle_alpha    60.0000015568084
_cell_angle_beta     60.00000039230756
_cell_angle_gamma    60.00000307226408

_space_group_name_H-M_alt    "P 1"
_space_group_IT_number       1

loop_
  _space_group_symop_operation_xyz
  'x, y, z'

loop_
  _atom_site_type_symbol
  _atom_site_label
  _atom_site_symmetry_multiplicity
  _atom_site_fract_x
  _atom_site_fract_y
  _atom_site_fract_z
  _atom_site_occupancy
  Se  Se1       1.0  0.25000004714594615  0.2499998836867192  0.24999996284045845  1.0000
  Se  Se2       1.0  0.7500000388609093  0.749999912011182  0.7499998978615987  1.0000
  Cr  Cr1       1.0  0.9999999518539368  7.166964756104168e-08  5.125762024943348e-08  1.0000
  Cl  Cl1       1.0  0.24038511279267655  0.24038509937068994  0.7596149760007556  1.0000
  Cl  Cl2       1.0  0.7596147709701098  0.7596149444144532  0.24038517687677638  1.0000
  Cl  Cl3       1.0  0.7596149389621241  0.24038518708092843  0.24038514233072922  1.0000
  Cl  Cl4       1.0  0.24038507656414693  0.7596148824317829  0.7596148237679988  1.0000
  Cl  Cl5       1.0  0.24038513077637302  0.7596148356492656  0.24038521098690244  1.0000
  Cl  Cl6       1.0  0.7596149393008046  0.24038518975904852  0.7596147633927299  1.0000
