data_image0
_chemical_formula_structural       Se2CrF6
_chemical_formula_sum              "Se2 Cr1 F6"
_cell_length_a       5.1899050381207354
_cell_length_b       5.1899050564534575
_cell_length_c       5.1899051239169935
_cell_angle_alpha    60.00000042449844
_cell_angle_beta     60.0000000990507
_cell_angle_gamma    60.00000037258097

_space_group_name_H-M_alt    "P 1"
_space_group_IT_number       1

loop_
  _space_group_symop_operation_xyz
  'x, y, z'

loop_
  _atom_site_type_symbol
  _atom_site_label
  _atom_site_symmetry_multiplicity
  _atom_site_fract_x
  _atom_site_fract_y
  _atom_site_fract_z
  _atom_site_occupancy
  Se  Se1       1.0  0.2499999995289908  0.25000002055899984  0.24999998277937874  1.0000
  Se  Se2       1.0  0.750000002543228  0.7500000097600825  0.749999989659824  1.0000
  Cr  Cr1       1.0  0.9999999807625448  0.99999999764014  1.1645699834300872e-09  1.0000
  F   F1        1.0  0.25204688544645587  0.25204682975928683  0.7479531194518059  1.0000
  F   F2        1.0  0.7479531106258842  0.7479531651618975  0.25204686405219734  1.0000
  F   F3        1.0  0.7479531204375846  0.25204686384056846  0.2520468823614964  1.0000
  F   F4        1.0  0.25204689435551625  0.7479531216411767  0.7479531408186487  1.0000
  F   F5        1.0  0.2520468726833387  0.7479531369266532  0.25204686084327366  1.0000
  F   F6        1.0  0.747953137525005  0.25204685563467144  0.7479531591626428  1.0000
