data_image0
_chemical_formula_structural       Se2CrBr6
_chemical_formula_sum              "Se2 Cr1 Br6"
_cell_length_a       7.116523558990431
_cell_length_b       7.116523504257683
_cell_length_c       7.116523426604612
_cell_angle_alpha    60.00000009921176
_cell_angle_beta     60.00000128608671
_cell_angle_gamma    59.999999179851976

_space_group_name_H-M_alt    "P 1"
_space_group_IT_number       1

loop_
  _space_group_symop_operation_xyz
  'x, y, z'

loop_
  _atom_site_type_symbol
  _atom_site_label
  _atom_site_symmetry_multiplicity
  _atom_site_fract_x
  _atom_site_fract_y
  _atom_site_fract_z
  _atom_site_occupancy
  Se  Se1       1.0  0.25000001469605393  0.25000005477855247  0.24999995854546653  1.0000
  Se  Se2       1.0  0.7499999539980671  0.7499999819109716  0.750000054049205  1.0000
  Cr  Cr1       1.0  2.0044414007436165e-08  0.9999999982790123  0.9999999599243158  1.0000
  Br  Br1       1.0  0.24061286032627754  0.24061284088322757  0.7593871337538866  1.0000
  Br  Br2       1.0  0.7593871407544457  0.7593871424556806  0.2406128387362937  1.0000
  Br  Br3       1.0  0.7593871712453603  0.24061284184579637  0.24061285426545664  1.0000
  Br  Br4       1.0  0.24061284691304044  0.7593871535400244  0.7593871711110932  1.0000
  Br  Br5       1.0  0.24061283014706722  0.7593871495101918  0.24061288559391322  1.0000
  Br  Br6       1.0  0.7593871637713185  0.2406128407126665  0.75938714043232  1.0000
