data_image0
_chemical_formula_structural       Se2CoI6
_chemical_formula_sum              "Se2 Co1 I6"
_cell_length_a       7.335010529147543
_cell_length_b       7.335010524372005
_cell_length_c       7.335010618367112
_cell_angle_alpha    59.999999872776996
_cell_angle_beta     59.9999998551711
_cell_angle_gamma    60.00000046522146

_space_group_name_H-M_alt    "P 1"
_space_group_IT_number       1

loop_
  _space_group_symop_operation_xyz
  'x, y, z'

loop_
  _atom_site_type_symbol
  _atom_site_label
  _atom_site_symmetry_multiplicity
  _atom_site_fract_x
  _atom_site_fract_y
  _atom_site_fract_z
  _atom_site_occupancy
  Se  Se1       1.0  0.2499999981898008  0.2499999953230185  0.25000000985532056  1.0000
  Se  Se2       1.0  0.7499999916910345  0.7499999993268535  0.749999969793265  1.0000
  Co  Co1       1.0  1.3914372742566052e-08  0.999999958256881  8.461074880526787e-09  1.0000
  I   I1        1.0  0.24869484953197765  0.24869481774559285  0.7513051648988389  1.0000
  I   I2        1.0  0.7513051844109585  0.7513052052896004  0.24869481806244748  1.0000
  I   I3        1.0  0.7513051649529671  0.24869481868725984  0.24869484320366647  1.0000
  I   I4        1.0  0.24869478323390148  0.751305216036006  0.7513051767916175  1.0000
  I   I5        1.0  0.24869482012793664  0.7513051864494125  0.24869482915713936  1.0000
  I   I6        1.0  0.7513051950360974  0.24869480319128542  0.7513051717108983  1.0000
