data_image0
_chemical_formula_structural       Se2CBr6
_chemical_formula_sum              "Se2 C1 Br6"
_cell_length_a       6.999601731542201
_cell_length_b       6.999601616587884
_cell_length_c       6.99960175904738
_cell_angle_alpha    60.00000091730184
_cell_angle_beta     60.00000218494534
_cell_angle_gamma    60.00000141242837

_space_group_name_H-M_alt    "P 1"
_space_group_IT_number       1

loop_
  _space_group_symop_operation_xyz
  'x, y, z'

loop_
  _atom_site_type_symbol
  _atom_site_label
  _atom_site_symmetry_multiplicity
  _atom_site_fract_x
  _atom_site_fract_y
  _atom_site_fract_z
  _atom_site_occupancy
  Se  Se1       1.0  0.2500000309636339  0.24999999490574154  0.25000002879995964  1.0000
  Se  Se2       1.0  0.7499999584188365  0.7499999427235793  0.7499999731926995  1.0000
  C   C1        1.0  0.9999999912684937  0.9999999965005296  0.9999999961149192  1.0000
  Br  Br1       1.0  0.24455148540483665  0.24455147663270782  0.7554485534798425  1.0000
  Br  Br2       1.0  0.7554485284052499  0.7554485064897265  0.24455151641544795  1.0000
  Br  Br3       1.0  0.7554485396079165  0.2445514844985646  0.24455141994094637  1.0000
  Br  Br4       1.0  0.24455146048732604  0.7554485546153921  0.7554485473828012  1.0000
  Br  Br5       1.0  0.24455145948260462  0.7554485218767663  0.24455144851817953  1.0000
  Br  Br6       1.0  0.75544854507846  0.2445515137377203  0.7554485240370027  1.0000
