data_image0
_chemical_formula_structural       Se2CoBr6
_chemical_formula_sum              "Se2 Co1 Br6"
_cell_length_a       7.065945761100206
_cell_length_b       7.065945815006064
_cell_length_c       7.065945834784907
_cell_angle_alpha    59.99999896818811
_cell_angle_beta     59.99999911433447
_cell_angle_gamma    59.9999990769058

_space_group_name_H-M_alt    "P 1"
_space_group_IT_number       1

loop_
  _space_group_symop_operation_xyz
  'x, y, z'

loop_
  _atom_site_type_symbol
  _atom_site_label
  _atom_site_symmetry_multiplicity
  _atom_site_fract_x
  _atom_site_fract_y
  _atom_site_fract_z
  _atom_site_occupancy
  Se  Se1       1.0  0.24999999233257744  0.2500000043538073  0.24999998932304182  1.0000
  Se  Se2       1.0  0.7499999795240743  0.7499999662621499  0.750000008503694  1.0000
  Co  Co1       1.0  2.048528032016862e-08  0.9999999826669365  0.9999999771953112  1.0000
  Br  Br1       1.0  0.2452055374695574  0.2452055429383352  0.7547944577916126  1.0000
  Br  Br2       1.0  0.7547944842535432  0.7547944692769742  0.24520552968318954  1.0000
  Br  Br3       1.0  0.7547944824367141  0.24520554290211952  0.24520552230451248  1.0000
  Br  Br4       1.0  0.2452055224659778  0.7547944658465771  0.7547944937119035  1.0000
  Br  Br5       1.0  0.2452055178220369  0.7547944684977704  0.24520553744879825  1.0000
  Br  Br6       1.0  0.7547944650603275  0.2452055523840707  0.7547944920026414  1.0000
