data_image0
_chemical_formula_structural       Se2FeI6
_chemical_formula_sum              "Se2 Fe1 I6"
_cell_length_a       7.5408038524432115
_cell_length_b       7.540803827613464
_cell_length_c       7.540803818560244
_cell_angle_alpha    59.99999951915775
_cell_angle_beta     59.999999455440616
_cell_angle_gamma    59.99999754965908

_space_group_name_H-M_alt    "P 1"
_space_group_IT_number       1

loop_
  _space_group_symop_operation_xyz
  'x, y, z'

loop_
  _atom_site_type_symbol
  _atom_site_label
  _atom_site_symmetry_multiplicity
  _atom_site_fract_x
  _atom_site_fract_y
  _atom_site_fract_z
  _atom_site_occupancy
  Se  Se1       1.0  0.24999995908389328  0.25000002081737654  0.25000001846054576  1.0000
  Se  Se2       1.0  0.7500000357315094  0.7499999958616913  0.7499999497616051  1.0000
  Fe  Fe1       1.0  3.098100845978436e-08  8.12078415533008e-09  0.999999926078242  1.0000
  I   I1        1.0  0.2247152898971552  0.22471528094923182  0.7752847166847933  1.0000
  I   I2        1.0  0.7752846606521216  0.7752846480253622  0.22471535995845227  1.0000
  I   I3        1.0  0.775284793165626  0.22471526246942755  0.22471525111003807  1.0000
  I   I4        1.0  0.2247151885636327  0.7752847980618778  0.7752847746655877  1.0000
  I   I5        1.0  0.22471522741383376  0.7752847527681552  0.22471527761984428  1.0000
  I   I6        1.0  0.7752848026367125  0.22471523630024362  0.7752847491176423  1.0000
