data_image0
_chemical_formula_structural       Se2GaBr6
_chemical_formula_sum              "Se2 Ga1 Br6"
_cell_length_a       7.132010355463919
_cell_length_b       7.132010410165836
_cell_length_c       7.132010319548565
_cell_angle_alpha    60.00000095295895
_cell_angle_beta     60.000000824210986
_cell_angle_gamma    60.00000051093039

_space_group_name_H-M_alt    "P 1"
_space_group_IT_number       1

loop_
  _space_group_symop_operation_xyz
  'x, y, z'

loop_
  _atom_site_type_symbol
  _atom_site_label
  _atom_site_symmetry_multiplicity
  _atom_site_fract_x
  _atom_site_fract_y
  _atom_site_fract_z
  _atom_site_occupancy
  Se  Se1       1.0  0.24999998743852442  0.24999994563975358  0.25000007640315114  1.0000
  Se  Se2       1.0  0.749999940970536  0.7500000223823161  0.7499998639203446  1.0000
  Ga  Ga1       1.0  0.9999999998035778  1.0303503276465429e-08  3.7010335808815254e-08  1.0000
  Br  Br1       1.0  0.24938613115574698  0.24938607157074094  0.7506139359966557  1.0000
  Br  Br2       1.0  0.750613906758722  0.7506139273618383  0.24938611639567881  1.0000
  Br  Br3       1.0  0.750613947725515  0.249386065940124  0.24938611353172663  1.0000
  Br  Br4       1.0  0.24938615850008947  0.7506138883439413  0.7506138695419997  1.0000
  Br  Br5       1.0  0.2493860610823087  0.750613927776929  0.2493861030274663  1.0000
  Br  Br6       1.0  0.7506138648883225  0.2493861398456712  0.7506138840597654  1.0000
