data_image0
_chemical_formula_structural       Se2GaI6
_chemical_formula_sum              "Se2 Ga1 I6"
_cell_length_a       7.540854725779642
_cell_length_b       7.540854658651762
_cell_length_c       7.540854641965632
_cell_angle_alpha    59.99999984430433
_cell_angle_beta     59.999999886009896
_cell_angle_gamma    59.99999956342738

_space_group_name_H-M_alt    "P 1"
_space_group_IT_number       1

loop_
  _space_group_symop_operation_xyz
  'x, y, z'

loop_
  _atom_site_type_symbol
  _atom_site_label
  _atom_site_symmetry_multiplicity
  _atom_site_fract_x
  _atom_site_fract_y
  _atom_site_fract_z
  _atom_site_occupancy
  Se  Se1       1.0  0.2500000112489618  0.2500000354175651  0.24999993275839433  1.0000
  Se  Se2       1.0  0.7499999837275646  0.7499999990590608  0.7500000718197773  1.0000
  Ga  Ga1       1.0  0.9999999858630555  0.9999999918792701  5.824398673838368e-09  1.0000
  I   I1        1.0  0.2595159592687213  0.2595159615091198  0.7404840498917995  1.0000
  I   I2        1.0  0.7404840387093117  0.7404840226189807  0.25951595051157944  1.0000
  I   I3        1.0  0.740484038736708  0.25951595902175206  0.259515944368768  1.0000
  I   I4        1.0  0.2595159557143737  0.7404840494685383  0.7404840442908821  1.0000
  I   I5        1.0  0.2595159888284094  0.7404840352238381  0.25951595335841277  1.0000
  I   I6        1.0  0.7404840362637991  0.2595159456559705  0.7404840470470111  1.0000
