data_image0
_chemical_formula_structural       Se2GeBr6
_chemical_formula_sum              "Se2 Ge1 Br6"
_cell_length_a       7.226758408170189
_cell_length_b       7.226758416114017
_cell_length_c       7.2267585291830585
_cell_angle_alpha    60.000000506420314
_cell_angle_beta     60.000000795130894
_cell_angle_gamma    60.00000026672397

_space_group_name_H-M_alt    "P 1"
_space_group_IT_number       1

loop_
  _space_group_symop_operation_xyz
  'x, y, z'

loop_
  _atom_site_type_symbol
  _atom_site_label
  _atom_site_symmetry_multiplicity
  _atom_site_fract_x
  _atom_site_fract_y
  _atom_site_fract_z
  _atom_site_occupancy
  Se  Se1       1.0  0.2500000750205492  0.24999999423742922  0.24999994292803596  1.0000
  Se  Se2       1.0  0.7499999988811362  0.7500000572806784  0.7499999405675689  1.0000
  Ge  Ge1       1.0  0.9999999927863255  0.9999999593263323  0.9999999713613134  1.0000
  Br  Br1       1.0  0.23743664183899987  0.2374365897298841  0.7625633595281708  1.0000
  Br  Br2       1.0  0.7625633350170734  0.7625633838303613  0.23743662669037843  1.0000
  Br  Br3       1.0  0.7625633428572651  0.2374365956774974  0.23743665850205067  1.0000
  Br  Br4       1.0  0.2374365693109187  0.762563418556416  0.7625634407370849  1.0000
  Br  Br5       1.0  0.2374366427512196  0.7625633829376571  0.2374366371585834  1.0000
  Br  Br6       1.0  0.7625633976296629  0.2374366109594226  0.762563424747576  1.0000
