data_image0
_chemical_formula_structural       Se2GaCl6
_chemical_formula_sum              "Se2 Ga1 Cl6"
_cell_length_a       6.625710199718994
_cell_length_b       6.625710218666977
_cell_length_c       6.625710280234741
_cell_angle_alpha    59.99999978797365
_cell_angle_beta     59.99999997188425
_cell_angle_gamma    60.00000029393701

_space_group_name_H-M_alt    "P 1"
_space_group_IT_number       1

loop_
  _space_group_symop_operation_xyz
  'x, y, z'

loop_
  _atom_site_type_symbol
  _atom_site_label
  _atom_site_symmetry_multiplicity
  _atom_site_fract_x
  _atom_site_fract_y
  _atom_site_fract_z
  _atom_site_occupancy
  Se  Se1       1.0  0.2500001946637317  0.2499999298568332  0.24999991446019795  1.0000
  Se  Se2       1.0  0.7500000624989009  0.7499999633269918  0.7500001043982402  1.0000
  Ga  Ga1       1.0  3.022489530026403e-08  2.9575573632971614e-08  0.9999999338772341  1.0000
  Cl  Cl1       1.0  0.25034330367692315  0.2503432965552459  0.7496567973296705  1.0000
  Cl  Cl2       1.0  0.749656638644643  0.7496566262041513  0.25034338981914034  1.0000
  Cl  Cl3       1.0  0.7496565016834885  0.25034340772063957  0.25034341453043796  1.0000
  Cl  Cl4       1.0  0.2503431974221082  0.7496567793704448  0.7496565688736783  1.0000
  Cl  Cl5       1.0  0.2503433683390397  0.7496565799009717  0.25034329595883015  1.0000
  Cl  Cl6       1.0  0.749656706202517  0.2503433853733131  0.7496565759224474  1.0000
