data_image0
_chemical_formula_structural       Se2GaBr6
_chemical_formula_sum              "Se2 Ga1 Br6"
_cell_length_a       7.132010357799546
_cell_length_b       7.132010289501521
_cell_length_c       7.132010284184941
_cell_angle_alpha    60.00000072304246
_cell_angle_beta     60.000000516466045
_cell_angle_gamma    60.000000319246084

_space_group_name_H-M_alt    "P 1"
_space_group_IT_number       1

loop_
  _space_group_symop_operation_xyz
  'x, y, z'

loop_
  _atom_site_type_symbol
  _atom_site_label
  _atom_site_symmetry_multiplicity
  _atom_site_fract_x
  _atom_site_fract_y
  _atom_site_fract_z
  _atom_site_occupancy
  Se  Se1       1.0  0.25000004220128397  0.24999998765012585  0.24999998643110113  1.0000
  Se  Se2       1.0  0.7499999482794015  0.750000031640399  0.7499999117550852  1.0000
  Ga  Ga1       1.0  0.9999999851508627  0.9999999862619958  5.35531887161242e-08  1.0000
  Br  Br1       1.0  0.24938612543560787  0.24938612743875896  0.7506139040668928  1.0000
  Br  Br2       1.0  0.7506138540877966  0.7506139004380198  0.24938616075605471  1.0000
  Br  Br3       1.0  0.750613913899869  0.24938605366653918  0.24938613366540163  1.0000
  Br  Br4       1.0  0.24938616711799869  0.7506138591544518  0.7506138566147131  1.0000
  Br  Br5       1.0  0.24938609684543553  0.7506139070352297  0.2493861329141846  1.0000
  Br  Br6       1.0  0.7506138644756915  0.2493861414485553  0.7506138605999378  1.0000
