data_image0
_chemical_formula_structural       Se2GeI6
_chemical_formula_sum              "Se2 Ge1 I6"
_cell_length_a       7.599814609106222
_cell_length_b       7.599814638148938
_cell_length_c       7.5998148272030335
_cell_angle_alpha    59.99999931573344
_cell_angle_beta     59.99999928338371
_cell_angle_gamma    59.99999878348121

_space_group_name_H-M_alt    "P 1"
_space_group_IT_number       1

loop_
  _space_group_symop_operation_xyz
  'x, y, z'

loop_
  _atom_site_type_symbol
  _atom_site_label
  _atom_site_symmetry_multiplicity
  _atom_site_fract_x
  _atom_site_fract_y
  _atom_site_fract_z
  _atom_site_occupancy
  Se  Se1       1.0  0.24999997460571596  0.25000000088870933  0.2500000269544987  1.0000
  Se  Se2       1.0  0.7499999917284137  0.7500000268393132  0.7499999690301942  1.0000
  Ge  Ge1       1.0  8.10245454283645e-09  5.318100898539526e-08  0.9999999206728716  1.0000
  I   I1        1.0  0.26573377876523413  0.2657337557262822  0.7342662299205313  1.0000
  I   I2        1.0  0.7342662248476926  0.7342662558862827  0.26573377916727947  1.0000
  I   I3        1.0  0.734266268795355  0.26573373188000626  0.2657337542663108  1.0000
  I   I4        1.0  0.26573374065022043  0.7342662394439152  0.7342662812602481  1.0000
  I   I5        1.0  0.26573375816878375  0.7342662246156628  0.26573373787808224  1.0000
  I   I6        1.0  0.7342662436957055  0.26573371931198136  0.7342663032947642  1.0000
