data_image0
_chemical_formula_structural       Se2GaS6
_chemical_formula_sum              "Se2 Ga1 S6"
_cell_length_a       6.2430464999638495
_cell_length_b       6.24304582266934
_cell_length_c       6.2430461511626865
_cell_angle_alpha    59.99999944186078
_cell_angle_beta     59.99999907091074
_cell_angle_gamma    59.999999648105636

_space_group_name_H-M_alt    "P 1"
_space_group_IT_number       1

loop_
  _space_group_symop_operation_xyz
  'x, y, z'

loop_
  _atom_site_type_symbol
  _atom_site_label
  _atom_site_symmetry_multiplicity
  _atom_site_fract_x
  _atom_site_fract_y
  _atom_site_fract_z
  _atom_site_occupancy
  Se  Se1       1.0  0.25000052036713394  0.25000010802319916  0.24999965146371797  1.0000
  Se  Se2       1.0  0.7499998596397537  0.7500002514839019  0.7499999134950583  1.0000
  Ga  Ga1       1.0  0.999999971919734  1.765597026964979e-08  0.9999999747782874  1.0000
  S   S1        1.0  0.268247622734695  0.2682476925570856  0.7317523693685625  1.0000
  S   S2        1.0  0.7317522142688034  0.7317522706715333  0.2682477885683843  1.0000
  S   S3        1.0  0.7317520782443081  0.26824767137472794  0.2682478335925696  1.0000
  S   S4        1.0  0.2682478182470996  0.7317521466825703  0.7317523687878625  1.0000
  S   S5        1.0  0.26824772103840266  0.7317522552735508  0.26824772450597895  1.0000
  S   S6        1.0  0.7317521978530928  0.2682475843632669  0.7317523741937588  1.0000
