data_image0
_chemical_formula_structural       Se2GaO6
_chemical_formula_sum              "Se2 Ga1 O6"
_cell_length_a       5.351549484390106
_cell_length_b       5.351549421331972
_cell_length_c       5.351549333564957
_cell_angle_alpha    60.00000105970438
_cell_angle_beta     59.99999909183705
_cell_angle_gamma    60.000001592642015

_space_group_name_H-M_alt    "P 1"
_space_group_IT_number       1

loop_
  _space_group_symop_operation_xyz
  'x, y, z'

loop_
  _atom_site_type_symbol
  _atom_site_label
  _atom_site_symmetry_multiplicity
  _atom_site_fract_x
  _atom_site_fract_y
  _atom_site_fract_z
  _atom_site_occupancy
  Se  Se1       1.0  0.24999982539264434  0.25000004475928567  0.24999980515585443  1.0000
  Se  Se2       1.0  0.7500002094608414  0.7500004912963429  0.749999488829328  1.0000
  Ga  Ga1       1.0  3.6834129115981648e-09  0.9999999954228407  3.59506101152581e-08  1.0000
  O   O1        1.0  0.25316788830672743  0.2531677982586969  0.746832181548551  1.0000
  O   O2        1.0  0.7468322458122111  0.7468320580887051  0.2531678511262708  1.0000
  O   O3        1.0  0.7468321817321516  0.25316763362541017  0.25316813926868353  1.0000
  O   O4        1.0  0.25316781743563926  0.7468320579442382  0.746832222657893  1.0000
  O   O5        1.0  0.25316771244265424  0.7468322644545748  0.25316811401037825  1.0000
  O   O6        1.0  0.7468321129502622  0.2531676765702811  0.7468321951270933  1.0000
