data_image0
_chemical_formula_structural       Se2GaCl6
_chemical_formula_sum              "Se2 Ga1 Cl6"
_cell_length_a       6.6257104936399775
_cell_length_b       6.625710197378161
_cell_length_c       6.625709846967709
_cell_angle_alpha    60.00000250245786
_cell_angle_beta     60.000003308753854
_cell_angle_gamma    60.00000599559755

_space_group_name_H-M_alt    "P 1"
_space_group_IT_number       1

loop_
  _space_group_symop_operation_xyz
  'x, y, z'

loop_
  _atom_site_type_symbol
  _atom_site_label
  _atom_site_symmetry_multiplicity
  _atom_site_fract_x
  _atom_site_fract_y
  _atom_site_fract_z
  _atom_site_occupancy
  Se  Se1       1.0  0.24999982619635727  0.24999990515859732  0.2500000931112131  1.0000
  Se  Se2       1.0  0.7499998028082511  0.7499999557773364  0.7499999804712844  1.0000
  Ga  Ga1       1.0  1.2662325596527362e-07  0.9999999704244351  7.319227594012668e-09  1.0000
  Cl  Cl1       1.0  0.2503434621330351  0.2503431818732349  0.7496565668353852  1.0000
  Cl  Cl2       1.0  0.7496568363743235  0.7496565422757135  0.2503432418985018  1.0000
  Cl  Cl3       1.0  0.749656788996314  0.2503435238261702  0.2503433640982477  1.0000
  Cl  Cl4       1.0  0.25034337913022076  0.749656701259032  0.7496565400825652  1.0000
  Cl  Cl5       1.0  0.2503432671714253  0.749656617663753  0.2503434946023458  1.0000
  Cl  Cl6       1.0  0.7496565108765032  0.25034362220921447  0.7496566923080391  1.0000
