data_image0
_chemical_formula_structural       Se2GaF6
_chemical_formula_sum              "Se2 Ga1 F6"
_cell_length_a       5.163202222009134
_cell_length_b       5.16320216767379
_cell_length_c       5.163202138345788
_cell_angle_alpha    59.99999945417787
_cell_angle_beta     59.999999856833526
_cell_angle_gamma    59.99999991730237

_space_group_name_H-M_alt    "P 1"
_space_group_IT_number       1

loop_
  _space_group_symop_operation_xyz
  'x, y, z'

loop_
  _atom_site_type_symbol
  _atom_site_label
  _atom_site_symmetry_multiplicity
  _atom_site_fract_x
  _atom_site_fract_y
  _atom_site_fract_z
  _atom_site_occupancy
  Se  Se1       1.0  0.2500000363816176  0.24999998803301732  0.24999997753623923  1.0000
  Se  Se2       1.0  0.7500000002160911  0.7499999688431805  0.7500000098792086  1.0000
  Ga  Ga1       1.0  0.9999999744732087  9.488257955837111e-09  2.545031008030287e-08  1.0000
  F   F1        1.0  0.25909404227276955  0.2590940038668799  0.7409059686736011  1.0000
  F   F2        1.0  0.7409059924489656  0.7409060123109316  0.2590939977761569  1.0000
  F   F3        1.0  0.7409059549265485  0.2590940903945938  0.2590940139331608  1.0000
  F   F4        1.0  0.2590940292609706  0.7409059566200564  0.7409059778595465  1.0000
  F   F5        1.0  0.25909401914270497  0.7409059499027877  0.25909407124022044  1.0000
  F   F6        1.0  0.7409059664014209  0.25909402594992614  0.7409059593287174  1.0000
