data_image0
_chemical_formula_structural       Se2GeCl6
_chemical_formula_sum              "Se2 Ge1 Cl6"
_cell_length_a       6.816918016125219
_cell_length_b       6.816917489049709
_cell_length_c       6.816917883348448
_cell_angle_alpha    59.99999999737473
_cell_angle_beta     60.000001819747716
_cell_angle_gamma    60.00000207818959

_space_group_name_H-M_alt    "P 1"
_space_group_IT_number       1

loop_
  _space_group_symop_operation_xyz
  'x, y, z'

loop_
  _atom_site_type_symbol
  _atom_site_label
  _atom_site_symmetry_multiplicity
  _atom_site_fract_x
  _atom_site_fract_y
  _atom_site_fract_z
  _atom_site_occupancy
  Se  Se1       1.0  0.2500000406853316  0.25000007027657445  0.2499999236995104  1.0000
  Se  Se2       1.0  0.749999942936933  0.7499999808616368  0.7500000299188289  1.0000
  Ge  Ge1       1.0  0.9999999594321283  2.5152757145413907e-08  0.9999999871704168  1.0000
  Cl  Cl1       1.0  0.2336054694394377  0.2336054705388814  0.7663945291004617  1.0000
  Cl  Cl2       1.0  0.7663944805284636  0.76639453927694  0.23360552948542912  1.0000
  Cl  Cl3       1.0  0.7663946012491457  0.23360545206456595  0.23360545972025037  1.0000
  Cl  Cl4       1.0  0.23360546125137108  0.7663944894794856  0.7663945958054194  1.0000
  Cl  Cl5       1.0  0.23360545536253674  0.7663945593569131  0.23360538516020177  1.0000
  Cl  Cl6       1.0  0.7663945922688512  0.23360542171290002  0.7663945392151251  1.0000
