data_image0
_chemical_formula_structural       Se2HfI6
_chemical_formula_sum              "Se2 Hf1 I6"
_cell_length_a       7.894760399246049
_cell_length_b       7.894760291155573
_cell_length_c       7.89476029268664
_cell_angle_alpha    59.999999888505435
_cell_angle_beta     60.0000000144797
_cell_angle_gamma    59.999999724116265

_space_group_name_H-M_alt    "P 1"
_space_group_IT_number       1

loop_
  _space_group_symop_operation_xyz
  'x, y, z'

loop_
  _atom_site_type_symbol
  _atom_site_label
  _atom_site_symmetry_multiplicity
  _atom_site_fract_x
  _atom_site_fract_y
  _atom_site_fract_z
  _atom_site_occupancy
  Se  Se1       1.0  0.250000157438251  0.24999998139182306  0.24999998576653928  1.0000
  Se  Se2       1.0  0.7499998672782665  0.7499999953696528  0.7500000011547968  1.0000
  Hf  Hf1       1.0  0.9999999553077846  6.825891163290527e-08  9.749921344392551e-09  1.0000
  I   I1        1.0  0.2520242474857799  0.2520242601390137  0.7479757511576254  1.0000
  I   I2        1.0  0.7479757156234069  0.7479757259304955  0.25202428471329197  1.0000
  I   I3        1.0  0.7479757786989519  0.2520242259220882  0.25202422502922467  1.0000
  I   I4        1.0  0.2520242790671278  0.7479757306719821  0.7479757478510555  1.0000
  I   I5        1.0  0.25202425073113804  0.7479757738906244  0.2520242238542398  1.0000
  I   I6        1.0  0.7479757484111214  0.2520242401029851  0.7479757749714392  1.0000
