data_image0
_chemical_formula_structural       Se2HfBr6
_chemical_formula_sum              "Se2 Hf1 Br6"
_cell_length_a       7.463231437951914
_cell_length_b       7.463231727271339
_cell_length_c       7.463231810865058
_cell_angle_alpha    59.99999951898841
_cell_angle_beta     59.9999981030521
_cell_angle_gamma    59.999997435361166

_space_group_name_H-M_alt    "P 1"
_space_group_IT_number       1

loop_
  _space_group_symop_operation_xyz
  'x, y, z'

loop_
  _atom_site_type_symbol
  _atom_site_label
  _atom_site_symmetry_multiplicity
  _atom_site_fract_x
  _atom_site_fract_y
  _atom_site_fract_z
  _atom_site_occupancy
  Se  Se1       1.0  0.24999999639757606  0.25000011303155983  0.24999998140489543  1.0000
  Se  Se2       1.0  0.749999906355501  0.7499998960143516  0.7500000557645268  1.0000
  Hf  Hf1       1.0  0.9999999955461477  0.9999999901537705  5.136681029397514e-08  1.0000
  Br  Br1       1.0  0.24795878539165775  0.24795879753726077  0.7520412198143303  1.0000
  Br  Br2       1.0  0.7520412457778407  0.752041211508647  0.24795876386609986  1.0000
  Br  Br3       1.0  0.7520412132253047  0.2479587857642363  0.24795879497487142  1.0000
  Br  Br4       1.0  0.24795886322019822  0.75204114779391  0.7520411930922202  1.0000
  Br  Br5       1.0  0.2479587982025113  0.7520412119609224  0.24795876711843173  1.0000
  Br  Br6       1.0  0.752041195349162  0.24795884959821066  0.7520411595379203  1.0000
