data_image0
_chemical_formula_structural       Se2HfCl6
_chemical_formula_sum              "Se2 Hf1 Cl6"
_cell_length_a       7.0892728713278945
_cell_length_b       7.089272644022661
_cell_length_c       7.089273734998341
_cell_angle_alpha    59.99999078403695
_cell_angle_beta     60.00000103424289
_cell_angle_gamma    59.999993428903075

_space_group_name_H-M_alt    "P 1"
_space_group_IT_number       1

loop_
  _space_group_symop_operation_xyz
  'x, y, z'

loop_
  _atom_site_type_symbol
  _atom_site_label
  _atom_site_symmetry_multiplicity
  _atom_site_fract_x
  _atom_site_fract_y
  _atom_site_fract_z
  _atom_site_occupancy
  Se  Se1       1.0  0.24999993118097397  0.250000416664163  0.2500002767692626  1.0000
  Se  Se2       1.0  0.7499999143230481  0.7500001546921337  0.7500001326792891  1.0000
  Hf  Hf1       1.0  0.9999999925984787  0.9999998756125787  0.9999999248363021  1.0000
  Cl  Cl1       1.0  0.24441660636444132  0.24441663896215066  0.7555833600285576  1.0000
  Cl  Cl2       1.0  0.7555834663927452  0.7555832897257878  0.24441668443143794  1.0000
  Cl  Cl3       1.0  0.7555833812938965  0.2444165653067541  0.2444165605030455  1.0000
  Cl  Cl4       1.0  0.24441669858824364  0.7555833029150908  0.7555832285111765  1.0000
  Cl  Cl5       1.0  0.2444165151420781  0.7555833694264205  0.24441643894025705  1.0000
  Cl  Cl6       1.0  0.7555834942924248  0.2444163778632043  0.7555834006252795  1.0000
