data_image0
_chemical_formula_structural       Se2HfF6
_chemical_formula_sum              "Se2 Hf1 F6"
_cell_length_a       5.230119438601346
_cell_length_b       5.2301193532534125
_cell_length_c       5.230119595593587
_cell_angle_alpha    59.999999613561535
_cell_angle_beta     59.99999971607054
_cell_angle_gamma    60.00000052561471

_space_group_name_H-M_alt    "P 1"
_space_group_IT_number       1

loop_
  _space_group_symop_operation_xyz
  'x, y, z'

loop_
  _atom_site_type_symbol
  _atom_site_label
  _atom_site_symmetry_multiplicity
  _atom_site_fract_x
  _atom_site_fract_y
  _atom_site_fract_z
  _atom_site_occupancy
  Se  Se1       1.0  0.25000000133706995  0.25000002210917366  0.24999998837957962  1.0000
  Se  Se2       1.0  0.749999992773343  0.7499999609503477  0.7500000463902838  1.0000
  Hf  Hf1       1.0  0.9999999681994212  0.9999999695577049  1.008941269974202e-08  1.0000
  F   F1        1.0  0.2629043649077338  0.2629043685292394  0.7370956282504042  1.0000
  F   F2        1.0  0.7370956325468601  0.7370956707314408  0.26290434615475505  1.0000
  F   F3        1.0  0.7370956327603891  0.2629043693110889  0.262904370392269  1.0000
  F   F4        1.0  0.26290436418148294  0.7370956582410167  0.7370956215955515  1.0000
  F   F5        1.0  0.262904383989318  0.7370956416407657  0.2629043391481087  1.0000
  F   F6        1.0  0.737095652447902  0.2629043601524755  0.7370956383234614  1.0000
