data_image0
_chemical_formula_structural       Se2IrBr6
_chemical_formula_sum              "Se2 Ir1 Br6"
_cell_length_a       7.1596040690024605
_cell_length_b       7.1596038576890395
_cell_length_c       7.15960375994505
_cell_angle_alpha    59.99999867250852
_cell_angle_beta     59.99999898615022
_cell_angle_gamma    59.99999945060795

_space_group_name_H-M_alt    "P 1"
_space_group_IT_number       1

loop_
  _space_group_symop_operation_xyz
  'x, y, z'

loop_
  _atom_site_type_symbol
  _atom_site_label
  _atom_site_symmetry_multiplicity
  _atom_site_fract_x
  _atom_site_fract_y
  _atom_site_fract_z
  _atom_site_occupancy
  Se  Se1       1.0  0.24999991774559524  0.25000000417548107  0.25000010928506367  1.0000
  Se  Se2       1.0  0.750000040999921  0.7499999766031723  0.7499999533181434  1.0000
  Ir  Ir1       1.0  5.2297291428769195e-09  0.9999999794724136  9.045654128257827e-09  1.0000
  Br  Br1       1.0  0.24359288555516967  0.2435928804870957  0.7564071050258936  1.0000
  Br  Br2       1.0  0.7564071132000504  0.756407144767996  0.24359284829142488  1.0000
  Br  Br3       1.0  0.7564071168825958  0.24359286211807765  0.24359288311040853  1.0000
  Br  Br4       1.0  0.24359290692832425  0.7564071460306918  0.7564070969601783  1.0000
  Br  Br5       1.0  0.24359288392173406  0.7564071174289486  0.24359285634631422  1.0000
  Br  Br6       1.0  0.7564071340081987  0.24359288900918877  0.756407130313533  1.0000
