data_image0
_chemical_formula_structural       Se2IrI6
_chemical_formula_sum              "Se2 Ir1 I6"
_cell_length_a       7.409014739083816
_cell_length_b       7.409014776661867
_cell_length_c       7.409014777341797
_cell_angle_alpha    59.99999985421192
_cell_angle_beta     59.99999998403421
_cell_angle_gamma    60.000000319770876

_space_group_name_H-M_alt    "P 1"
_space_group_IT_number       1

loop_
  _space_group_symop_operation_xyz
  'x, y, z'

loop_
  _atom_site_type_symbol
  _atom_site_label
  _atom_site_symmetry_multiplicity
  _atom_site_fract_x
  _atom_site_fract_y
  _atom_site_fract_z
  _atom_site_occupancy
  Se  Se1       1.0  0.25000003003543364  0.25000000497704233  0.2499999611006915  1.0000
  Se  Se2       1.0  0.7499999724943612  0.7499999984006577  0.7500000475521915  1.0000
  Ir  Ir1       1.0  0.99999998742118  3.306093754010739e-08  0.9999999371203635  1.0000
  I   I1        1.0  0.25234421373195204  0.25234420287919584  0.7476557961253949  1.0000
  I   I2        1.0  0.7476557801868918  0.747655788927176  0.25234420912155664  1.0000
  I   I3        1.0  0.7476557804418249  0.2523442250101541  0.25234422818474955  1.0000
  I   I4        1.0  0.2523442078723236  0.747655788285827  0.747655782616816  1.0000
  I   I5        1.0  0.2523442262723953  0.7476557728467317  0.25234423023716246  1.0000
  I   I6        1.0  0.7476558020443743  0.25234418589870267  0.7476558053845587  1.0000
