data_image0
_chemical_formula_structural       Se2IrBr6
_chemical_formula_sum              "Se2 Ir1 Br6"
_cell_length_a       7.159487073951197
_cell_length_b       7.15948719432393
_cell_length_c       7.1594872071223135
_cell_angle_alpha    60.000000341569255
_cell_angle_beta     59.99999928329557
_cell_angle_gamma    59.99999917222564

_space_group_name_H-M_alt    "P 1"
_space_group_IT_number       1

loop_
  _space_group_symop_operation_xyz
  'x, y, z'

loop_
  _atom_site_type_symbol
  _atom_site_label
  _atom_site_symmetry_multiplicity
  _atom_site_fract_x
  _atom_site_fract_y
  _atom_site_fract_z
  _atom_site_occupancy
  Se  Se1       1.0  0.2500000714998576  0.24999999790036986  0.24999995559074137  1.0000
  Se  Se2       1.0  0.7500000333906965  0.7499999902797921  0.7499999855755346  1.0000
  Ir  Ir1       1.0  0.9999999756119443  1.0263960505050273e-08  0.9999999903010707  1.0000
  Br  Br1       1.0  0.24359568622986252  0.2435956741386775  0.7564043249589236  1.0000
  Br  Br2       1.0  0.7564042996861333  0.7564043225947865  0.2435956923692017  1.0000
  Br  Br3       1.0  0.7564043029554699  0.2435956866765025  0.24359569396955746  1.0000
  Br  Br4       1.0  0.2435956544830957  0.7564043374275226  0.756404332292491  1.0000
  Br  Br5       1.0  0.2435956733134048  0.7564043212163354  0.24359569067310227  1.0000
  Br  Br6       1.0  0.7564043058745707  0.2435956618318483  0.7564043396551695  1.0000
