data_image0
_chemical_formula_structural       Se2IrCl6
_chemical_formula_sum              "Se2 Ir1 Cl6"
_cell_length_a       6.773691349186153
_cell_length_b       6.773690690355546
_cell_length_c       6.773691245513963
_cell_angle_alpha    59.99999789024342
_cell_angle_beta     60.0000007249388
_cell_angle_gamma    59.999999214272115

_space_group_name_H-M_alt    "P 1"
_space_group_IT_number       1

loop_
  _space_group_symop_operation_xyz
  'x, y, z'

loop_
  _atom_site_type_symbol
  _atom_site_label
  _atom_site_symmetry_multiplicity
  _atom_site_fract_x
  _atom_site_fract_y
  _atom_site_fract_z
  _atom_site_occupancy
  Se  Se1       1.0  0.24999983831277017  0.2500001200276056  0.2500001474576628  1.0000
  Se  Se2       1.0  0.7500002631325319  0.749999772453259  0.750000050591367  1.0000
  Ir  Ir1       1.0  0.9999999682136954  0.9999999981919082  0.9999999798896996  1.0000
  Cl  Cl1       1.0  0.23890918131675587  0.2389093161936027  0.7610907238617294  1.0000
  Cl  Cl2       1.0  0.7610907519644496  0.7610907534801737  0.23890924084640214  1.0000
  Cl  Cl3       1.0  0.7610907183472956  0.2389092382419354  0.23890927582720087  1.0000
  Cl  Cl4       1.0  0.2389092507175862  0.7610906831683808  0.7610907377393225  1.0000
  Cl  Cl5       1.0  0.2389092713053998  0.7610907867171918  0.23890919414237946  1.0000
  Cl  Cl6       1.0  0.7610907652377011  0.23890932092649722  0.7610906659949498  1.0000
