data_image0
_chemical_formula_structural       Se2IrF6
_chemical_formula_sum              "Se2 Ir1 F6"
_cell_length_a       5.413444205120669
_cell_length_b       5.413444151692624
_cell_length_c       5.413444016359089
_cell_angle_alpha    59.999998925643204
_cell_angle_beta     59.999999570603244
_cell_angle_gamma    59.99999862025443

_space_group_name_H-M_alt    "P 1"
_space_group_IT_number       1

loop_
  _space_group_symop_operation_xyz
  'x, y, z'

loop_
  _atom_site_type_symbol
  _atom_site_label
  _atom_site_symmetry_multiplicity
  _atom_site_fract_x
  _atom_site_fract_y
  _atom_site_fract_z
  _atom_site_occupancy
  Se  Se1       1.0  0.24999997729124585  0.2500000666296346  0.2500000309049966  1.0000
  Se  Se2       1.0  0.749999959410868  0.7500000980802971  0.750000188962821  1.0000
  Ir  Ir1       1.0  2.3485462748303985e-08  0.9999999615389717  0.9999999668482199  1.0000
  F   F1        1.0  0.25215638761152437  0.25215640808049405  0.7478435721725517  1.0000
  F   F2        1.0  0.7478435951152012  0.7478435801611928  0.25215638410607366  1.0000
  F   F3        1.0  0.7478436203135388  0.252156367801519  0.2521563558838366  1.0000
  F   F4        1.0  0.2521564259307436  0.7478435706670719  0.7478435547302477  1.0000
  F   F5        1.0  0.25215640756398583  0.7478435534997533  0.2521563866889525  1.0000
  F   F6        1.0  0.7478435846005628  0.2521563872312511  0.7478435720008271  1.0000
