data_image0
_chemical_formula_structural       Se2IrI6
_chemical_formula_sum              "Se2 Ir1 I6"
_cell_length_a       7.407960376623747
_cell_length_b       7.407960400779716
_cell_length_c       7.40796038870484
_cell_angle_alpha    59.999999887049654
_cell_angle_beta     59.999999999054936
_cell_angle_gamma    60.000000063447686

_space_group_name_H-M_alt    "P 1"
_space_group_IT_number       1

loop_
  _space_group_symop_operation_xyz
  'x, y, z'

loop_
  _atom_site_type_symbol
  _atom_site_label
  _atom_site_symmetry_multiplicity
  _atom_site_fract_x
  _atom_site_fract_y
  _atom_site_fract_z
  _atom_site_occupancy
  Se  Se1       1.0  0.2499999984583216  0.2500000018229304  0.24999999905670264  1.0000
  Se  Se2       1.0  0.7499999990435176  0.750000003815509  0.7499999961624726  1.0000
  Ir  Ir1       1.0  4.2196468714344945e-09  0.9999999966934356  3.194104019591128e-08  1.0000
  I   I1        1.0  0.2523221798360872  0.2523221777449949  0.7476778252168534  1.0000
  I   I2        1.0  0.7476778173037636  0.7476778196270338  0.2523221810660178  1.0000
  I   I3        1.0  0.7476778292876685  0.25232217202144525  0.2523221781139688  1.0000
  I   I4        1.0  0.25232219317006344  0.7476778055111977  0.7476778078809649  1.0000
  I   I5        1.0  0.25232217127274  0.7476778329999766  0.25232217445914445  1.0000
  I   I6        1.0  0.7476778055874065  0.2523221924778488  0.747677807662192  1.0000
