data_image0
_chemical_formula_structural       Se2MnBr6
_chemical_formula_sum              "Se2 Mn1 Br6"
_cell_length_a       7.188598865530174
_cell_length_b       7.188598651415711
_cell_length_c       7.188598821042202
_cell_angle_alpha    60.00000065687134
_cell_angle_beta     60.00000108243854
_cell_angle_gamma    59.999999019869385

_space_group_name_H-M_alt    "P 1"
_space_group_IT_number       1

loop_
  _space_group_symop_operation_xyz
  'x, y, z'

loop_
  _atom_site_type_symbol
  _atom_site_label
  _atom_site_symmetry_multiplicity
  _atom_site_fract_x
  _atom_site_fract_y
  _atom_site_fract_z
  _atom_site_occupancy
  Se  Se1       1.0  0.25000011075933587  0.24999981913876299  0.25000004213484533  1.0000
  Se  Se2       1.0  0.7499999969742009  0.7500000537226451  0.7499998484475475  1.0000
  Mn  Mn1       1.0  0.9999999941900165  8.007542454389157e-08  0.9999999420009051  1.0000
  Br  Br1       1.0  0.23557149765567423  0.23557156997742773  0.7644284951998701  1.0000
  Br  Br2       1.0  0.7644284226424685  0.7644284170340584  0.23557159339181558  1.0000
  Br  Br3       1.0  0.7644284180466339  0.23557156397976944  0.23557152111094948  1.0000
  Br  Br4       1.0  0.23557148508330883  0.7644285371817904  0.7644285245541672  1.0000
  Br  Br5       1.0  0.23557156578403743  0.7644284689836514  0.23557151227943343  1.0000
  Br  Br6       1.0  0.7644285082646027  0.23557148565691663  0.7644285211868297  1.0000
