data_image0
_chemical_formula_structural       Se2MnI6
_chemical_formula_sum              "Se2 Mn1 I6"
_cell_length_a       7.468037719739171
_cell_length_b       7.468037700465787
_cell_length_c       7.468037818728314
_cell_angle_alpha    59.999999904046035
_cell_angle_beta     59.999998827399786
_cell_angle_gamma    60.00000159245484

_space_group_name_H-M_alt    "P 1"
_space_group_IT_number       1

loop_
  _space_group_symop_operation_xyz
  'x, y, z'

loop_
  _atom_site_type_symbol
  _atom_site_label
  _atom_site_symmetry_multiplicity
  _atom_site_fract_x
  _atom_site_fract_y
  _atom_site_fract_z
  _atom_site_occupancy
  Se  Se1       1.0  0.2500000101902606  0.25000006602891117  0.24999988774977192  1.0000
  Se  Se2       1.0  0.7500000138790046  0.7499999652092681  0.7500000759274972  1.0000
  Mn  Mn1       1.0  0.9999999956428056  0.9999999852401608  5.508587060717732e-08  1.0000
  I   I1        1.0  0.23962613128762908  0.23962616072645446  0.7603738817284931  1.0000
  I   I2        1.0  0.7603738532372395  0.7603738360720989  0.23962615643390245  1.0000
  I   I3        1.0  0.7603738037456844  0.23962618131073846  0.2396261379701888  1.0000
  I   I4        1.0  0.23962619169630697  0.760373810567868  0.7603738329197073  1.0000
  I   I5        1.0  0.2396261875011565  0.7603738115172409  0.23962613824045992  1.0000
  I   I6        1.0  0.7603737937437485  0.23962619512120473  0.7603738430803785  1.0000
