data_image0
_chemical_formula_structural       Se2MoCl6
_chemical_formula_sum              "Se2 Mo1 Cl6"
_cell_length_a       6.887704876349769
_cell_length_b       6.887705803910887
_cell_length_c       6.887704437101913
_cell_angle_alpha    60.000002944224555
_cell_angle_beta     59.99999691105619
_cell_angle_gamma    60.00000500663534

_space_group_name_H-M_alt    "P 1"
_space_group_IT_number       1

loop_
  _space_group_symop_operation_xyz
  'x, y, z'

loop_
  _atom_site_type_symbol
  _atom_site_label
  _atom_site_symmetry_multiplicity
  _atom_site_fract_x
  _atom_site_fract_y
  _atom_site_fract_z
  _atom_site_occupancy
  Se  Se1       1.0  0.2500000412056126  0.25000009305155785  0.24999993093857736  1.0000
  Se  Se2       1.0  0.7499994698821765  0.7500001280109985  0.7500001749288546  1.0000
  Mo  Mo1       1.0  4.9143439402357574e-08  0.9999999430988568  4.888659002318974e-08  1.0000
  Cl  Cl1       1.0  0.23966364382625727  0.23966357159253618  0.7603363578642064  1.0000
  Cl  Cl2       1.0  0.7603365808668926  0.7603362689436405  0.2396635059668659  1.0000
  Cl  Cl3       1.0  0.760336404211899  0.23966360925438082  0.23966359898785758  1.0000
  Cl  Cl4       1.0  0.2396636585060848  0.7603363148553439  0.7603364332597932  1.0000
  Cl  Cl5       1.0  0.2396638086829391  0.760336338442425  0.23966353401350673  1.0000
  Cl  Cl6       1.0  0.7603363306759385  0.2396637279201592  0.7603364221800983  1.0000
