data_image0
_chemical_formula_structural       Se2MoI6
_chemical_formula_sum              "Se2 Mo1 I6"
_cell_length_a       7.596460818689489
_cell_length_b       7.596460637077291
_cell_length_c       7.5964606343059335
_cell_angle_alpha    59.99999969839136
_cell_angle_beta     60.00000087966311
_cell_angle_gamma    60.00000004573001

_space_group_name_H-M_alt    "P 1"
_space_group_IT_number       1

loop_
  _space_group_symop_operation_xyz
  'x, y, z'

loop_
  _atom_site_type_symbol
  _atom_site_label
  _atom_site_symmetry_multiplicity
  _atom_site_fract_x
  _atom_site_fract_y
  _atom_site_fract_z
  _atom_site_occupancy
  Se  Se1       1.0  0.250000048086055  0.24999998397646037  0.24999998652867297  1.0000
  Se  Se2       1.0  0.749999962803077  0.7500000083583842  0.7500000102514383  1.0000
  Mo  Mo1       1.0  0.9999999915093217  0.9999999935509708  3.37979043199037e-08  1.0000
  I   I1        1.0  0.2518938956182567  0.2518938764783439  0.7481061221486333  1.0000
  I   I2        1.0  0.7481061027416437  0.7481061352035878  0.25189387648816036  1.0000
  I   I3        1.0  0.74810612142131  0.25189386381514145  0.2518938766088981  1.0000
  I   I4        1.0  0.2518939310624291  0.7481060994990729  0.7481060875561745  1.0000
  I   I5        1.0  0.25189386564721133  0.7481061304280889  0.25189388552218506  1.0000
  I   I6        1.0  0.7481060840552477  0.25189390866221584  0.7481061211063376  1.0000
