data_image0
_chemical_formula_structural       Se2MoCl6
_chemical_formula_sum              "Se2 Mo1 Cl6"
_cell_length_a       6.887615387892736
_cell_length_b       6.887615732816273
_cell_length_c       6.887615859484219
_cell_angle_alpha    60.000007999048776
_cell_angle_beta     60.000002734453986
_cell_angle_gamma    60.000013412155596

_space_group_name_H-M_alt    "P 1"
_space_group_IT_number       1

loop_
  _space_group_symop_operation_xyz
  'x, y, z'

loop_
  _atom_site_type_symbol
  _atom_site_label
  _atom_site_symmetry_multiplicity
  _atom_site_fract_x
  _atom_site_fract_y
  _atom_site_fract_z
  _atom_site_occupancy
  Se  Se1       1.0  0.24999959079243833  0.2500002813127724  0.24999962799498507  1.0000
  Se  Se2       1.0  0.7499999439028874  0.7499998943883665  0.7500003903927872  1.0000
  Mo  Mo1       1.0  3.806819123400727e-08  0.9999999964436329  0.999999946447059  1.0000
  Cl  Cl1       1.0  0.2396684498263338  0.23966837970990476  0.7603315518774533  1.0000
  Cl  Cl2       1.0  0.7603316429739717  0.7603315701619318  0.23966826988298132  1.0000
  Cl  Cl3       1.0  0.7603318174716501  0.23966822938548954  0.2396684872987239  1.0000
  Cl  Cl4       1.0  0.2396683640374138  0.7603312883877067  0.7603319097796014  1.0000
  Cl  Cl5       1.0  0.23966845876752849  0.7603317453112242  0.23966817170964996  1.0000
  Cl  Cl6       1.0  0.760331692584783  0.23966859220472067  0.7603316752244408  1.0000
