data_image0
_chemical_formula_structural       Se2MnF6
_chemical_formula_sum              "Se2 Mn1 F6"
_cell_length_a       5.154412376314452
_cell_length_b       5.154412251407667
_cell_length_c       5.154412390857542
_cell_angle_alpha    59.99999978765422
_cell_angle_beta     60.000000527331785
_cell_angle_gamma    60.00000037543946

_space_group_name_H-M_alt    "P 1"
_space_group_IT_number       1

loop_
  _space_group_symop_operation_xyz
  'x, y, z'

loop_
  _atom_site_type_symbol
  _atom_site_label
  _atom_site_symmetry_multiplicity
  _atom_site_fract_x
  _atom_site_fract_y
  _atom_site_fract_z
  _atom_site_occupancy
  Se  Se1       1.0  0.25000001765695523  0.2499999997844746  0.25000001208928435  1.0000
  Se  Se2       1.0  0.7499999936613873  0.7500000159861905  0.7499999644821118  1.0000
  Mn  Mn1       1.0  4.752219229926314e-09  0.9999999857433421  1.2512560702409875e-08  1.0000
  F   F1        1.0  0.2517438786040086  0.25174387927577563  0.7482561097926897  1.0000
  F   F2        1.0  0.7482561045194336  0.7482561269904506  0.2517438953288025  1.0000
  F   F3        1.0  0.7482561184319247  0.2517438705285142  0.25174390200309904  1.0000
  F   F4        1.0  0.2517438822288978  0.7482561167288349  0.7482561174347392  1.0000
  F   F5        1.0  0.2517438689509398  0.7482561069228744  0.25174391071893104  1.0000
  F   F6        1.0  0.7482561435671151  0.25174388508669415  0.7482560848934985  1.0000
