data_image0
_chemical_formula_structural       Se2MnCl6
_chemical_formula_sum              "Se2 Mn1 Cl6"
_cell_length_a       6.656384556895367
_cell_length_b       6.656384564269131
_cell_length_c       6.656384117732881
_cell_angle_alpha    60.000003769242625
_cell_angle_beta     60.000000436132666
_cell_angle_gamma    60.000001571254224

_space_group_name_H-M_alt    "P 1"
_space_group_IT_number       1

loop_
  _space_group_symop_operation_xyz
  'x, y, z'

loop_
  _atom_site_type_symbol
  _atom_site_label
  _atom_site_symmetry_multiplicity
  _atom_site_fract_x
  _atom_site_fract_y
  _atom_site_fract_z
  _atom_site_occupancy
  Se  Se1       1.0  0.24999988270805532  0.2500001369878624  0.2499998592500242  1.0000
  Se  Se2       1.0  0.7500000512362742  0.7499999822540764  0.7500000682856165  1.0000
  Mn  Mn1       1.0  1.4349224632533574e-07  0.9999999650408549  0.9999999877983272  1.0000
  Cl  Cl1       1.0  0.24099459618802357  0.24099452789370282  0.7590054124029672  1.0000
  Cl  Cl2       1.0  0.7590053960215498  0.7590054165525078  0.2409945388446184  1.0000
  Cl  Cl3       1.0  0.7590054396081644  0.24099458365693258  0.24099465076585652  1.0000
  Cl  Cl4       1.0  0.24099463849588926  0.7590054049482025  0.7590054157330836  1.0000
  Cl  Cl5       1.0  0.24099453219429784  0.7590053869071968  0.24099464514396968  1.0000
  Cl  Cl6       1.0  0.7590053198872503  0.2409945980180264  0.7590054175231274  1.0000
