data_image0
_chemical_formula_structural       Se2MoBr6
_chemical_formula_sum              "Se2 Mo1 Br6"
_cell_length_a       7.329174271985493
_cell_length_b       7.32917461586122
_cell_length_c       7.329174373074469
_cell_angle_alpha    59.99999957133515
_cell_angle_beta     59.99999817330579
_cell_angle_gamma    59.99999867235748

_space_group_name_H-M_alt    "P 1"
_space_group_IT_number       1

loop_
  _space_group_symop_operation_xyz
  'x, y, z'

loop_
  _atom_site_type_symbol
  _atom_site_label
  _atom_site_symmetry_multiplicity
  _atom_site_fract_x
  _atom_site_fract_y
  _atom_site_fract_z
  _atom_site_occupancy
  Se  Se1       1.0  0.2499998969895292  0.25000012486144724  0.24999987628901787  1.0000
  Se  Se2       1.0  0.74999992458826  0.7500002408999896  0.7499999077222418  1.0000
  Mo  Mo1       1.0  2.683243891687525e-08  0.9999999147762297  7.831443226022344e-08  1.0000
  Br  Br1       1.0  0.24031167361320135  0.24031164360849724  0.7596883534494088  1.0000
  Br  Br2       1.0  0.7596883480104542  0.7596883110735768  0.24031168207048895  1.0000
  Br  Br3       1.0  0.75968834573462  0.2403116273937376  0.240311711022696  1.0000
  Br  Br4       1.0  0.24031172337752416  0.7596882604461631  0.7596883655554783  1.0000
  Br  Br5       1.0  0.24031171908070478  0.7596882901270402  0.24031166509019977  1.0000
  Br  Br6       1.0  0.7596883493952494  0.2403115759891555  0.7596883667271055  1.0000
