data_image0
_chemical_formula_structural       Se2NbI6
_chemical_formula_sum              "Se2 Nb1 I6"
_cell_length_a       7.777616180527496
_cell_length_b       7.777616072416563
_cell_length_c       7.777616220703912
_cell_angle_alpha    59.999999861152055
_cell_angle_beta     59.99999959392721
_cell_angle_gamma    59.99999965989481

_space_group_name_H-M_alt    "P 1"
_space_group_IT_number       1

loop_
  _space_group_symop_operation_xyz
  'x, y, z'

loop_
  _atom_site_type_symbol
  _atom_site_label
  _atom_site_symmetry_multiplicity
  _atom_site_fract_x
  _atom_site_fract_y
  _atom_site_fract_z
  _atom_site_occupancy
  Se  Se1       1.0  0.2500000124454218  0.24999994214061547  0.2500000437184983  1.0000
  Se  Se2       1.0  0.7499999576567372  0.7500000342828695  0.7500000747791944  1.0000
  Nb  Nb1       1.0  3.327716896149159e-08  0.9999999937011808  0.9999999337954444  1.0000
  I   I1        1.0  0.24785372616962448  0.24785373936567867  0.7521462483364794  1.0000
  I   I2        1.0  0.7521462107454253  0.7521462386325104  0.24785376510776264  1.0000
  I   I3        1.0  0.752146257098196  0.24785378985476597  0.2478537522451823  1.0000
  I   I4        1.0  0.24785375776715973  0.7521462527063166  0.7521462156572799  1.0000
  I   I5        1.0  0.2478537515604953  0.7521462793657357  0.2478537476005493  1.0000
  I   I6        1.0  0.752146295112835  0.24785373012654796  0.7521462170751019  1.0000
