data_image0
_chemical_formula_structural       Se2NbBr6
_chemical_formula_sum              "Se2 Nb1 Br6"
_cell_length_a       7.565278145946507
_cell_length_b       7.56527802111481
_cell_length_c       7.565278311921244
_cell_angle_alpha    59.99999227027411
_cell_angle_beta     59.999991361455685
_cell_angle_gamma    59.999992434414565

_space_group_name_H-M_alt    "P 1"
_space_group_IT_number       1

loop_
  _space_group_symop_operation_xyz
  'x, y, z'

loop_
  _atom_site_type_symbol
  _atom_site_label
  _atom_site_symmetry_multiplicity
  _atom_site_fract_x
  _atom_site_fract_y
  _atom_site_fract_z
  _atom_site_occupancy
  Se  Se1       1.0  0.24999981157609671  0.24999998789542835  0.2499999864053865  1.0000
  Se  Se2       1.0  0.7500001409814976  0.7499999329270995  0.7499999995120404  1.0000
  Nb  Nb1       1.0  0.999999994495181  4.856708194840856e-08  2.8698347098664533e-08  1.0000
  Br  Br1       1.0  0.23583027150872904  0.23583027372923557  0.7641696988702371  1.0000
  Br  Br2       1.0  0.764169772302415  0.7641697442274562  0.2358302391173181  1.0000
  Br  Br3       1.0  0.7641697315571089  0.2358302667878175  0.2358303295585312  1.0000
  Br  Br4       1.0  0.23583028047914906  0.7641697365987455  0.7641697307386669  1.0000
  Br  Br5       1.0  0.23583029455188165  0.7641696833930713  0.23583026625713713  1.0000
  Br  Br6       1.0  0.7641697117335765  0.23583032808800847  0.7641697320640946  1.0000
