data_image0
_chemical_formula_structural       Se2NO6
_chemical_formula_sum              "Se2 N1 O6"
_cell_length_a       6.935015188617605
_cell_length_b       6.566291349620319
_cell_length_c       6.665274746087132
_cell_angle_alpha    39.027410693865036
_cell_angle_beta     45.95396313929081
_cell_angle_gamma    57.91304180256411

_space_group_name_H-M_alt    "P 1"
_space_group_IT_number       1

loop_
  _space_group_symop_operation_xyz
  'x, y, z'

loop_
  _atom_site_type_symbol
  _atom_site_label
  _atom_site_symmetry_multiplicity
  _atom_site_fract_x
  _atom_site_fract_y
  _atom_site_fract_z
  _atom_site_occupancy
  Se  Se1       1.0  0.060767212037983784  0.4236341348029824  0.18587473306589897  1.0000
  Se  Se2       1.0  0.6379597908396518  0.7785168993823913  0.4845622544480572  1.0000
  N   N1        1.0  0.1751566408066376  0.9975589306796243  0.1162284192304589  1.0000
  O   O1        1.0  0.3958612476353529  0.04007579891230356  0.9959730333672637  1.0000
  O   O2        1.0  0.7574008387023181  0.621082500576714  0.2588710628040169  1.0000
  O   O3        1.0  0.9592027478792878  0.15291971638757557  0.2300473353471342  1.0000
  O   O4        1.0  0.25227500443974465  0.7085026772660751  0.709140699530515  1.0000
  O   O5        1.0  0.11618876024855049  0.8155110136553411  0.15380281781806038  1.0000
  O   O6        1.0  0.645179431712422  0.46219777141684276  0.8655069724625999  1.0000
