data_image0
_chemical_formula_structural       Se2NF6
_chemical_formula_sum              "Se2 N1 F6"
_cell_length_a       5.434439459282951
_cell_length_b       5.434439493684393
_cell_length_c       5.4344391245770165
_cell_angle_alpha    60.00000137499793
_cell_angle_beta     59.99999968204005
_cell_angle_gamma    60.0000036698262

_space_group_name_H-M_alt    "P 1"
_space_group_IT_number       1

loop_
  _space_group_symop_operation_xyz
  'x, y, z'

loop_
  _atom_site_type_symbol
  _atom_site_label
  _atom_site_symmetry_multiplicity
  _atom_site_fract_x
  _atom_site_fract_y
  _atom_site_fract_z
  _atom_site_occupancy
  Se  Se1       1.0  0.24999989157043417  0.24999995657468782  0.24999992772015056  1.0000
  Se  Se2       1.0  0.7500000434916564  0.7500004015908521  0.7499994671653599  1.0000
  N   N1        1.0  3.352519593509897e-08  0.9999999504191999  5.955105815899947e-08  1.0000
  F   F1        1.0  0.22355651402041374  0.22355620616095595  0.7764437053793325  1.0000
  F   F2        1.0  0.7764434403675069  0.7764435840790429  0.2235565710444151  1.0000
  F   F3        1.0  0.7764436670921154  0.22355640058717208  0.223556524021727  1.0000
  F   F4        1.0  0.22355640194564425  0.7764435429025799  0.7764436442138496  1.0000
  F   F5        1.0  0.2235563825215529  0.7764435321774213  0.22355648526315858  1.0000
  F   F6        1.0  0.7764436143803608  0.22355644286374726  0.7764435542152138  1.0000
