data_image0
_chemical_formula_structural       Se2NiI6
_chemical_formula_sum              "Se2 Ni1 I6"
_cell_length_a       7.318268134688183
_cell_length_b       7.318268139852899
_cell_length_c       7.318268155335506
_cell_angle_alpha    59.999999877061306
_cell_angle_beta     60.000000021257115
_cell_angle_gamma    59.999999570842114

_space_group_name_H-M_alt    "P 1"
_space_group_IT_number       1

loop_
  _space_group_symop_operation_xyz
  'x, y, z'

loop_
  _atom_site_type_symbol
  _atom_site_label
  _atom_site_symmetry_multiplicity
  _atom_site_fract_x
  _atom_site_fract_y
  _atom_site_fract_z
  _atom_site_occupancy
  Se  Se1       1.0  0.2500000070197765  0.24999998760816283  0.25000000995338123  1.0000
  Se  Se2       1.0  0.7499999885455519  0.7500000130308292  0.7499999977843224  1.0000
  Ni  Ni1       1.0  1.1140543050828725e-08  0.9999999949793659  0.999999990107828  1.0000
  I   I1        1.0  0.25306121684413635  0.2530612216274426  0.7469387746872406  1.0000
  I   I2        1.0  0.7469387731591314  0.7469387672967368  0.2530612266580213  1.0000
  I   I3        1.0  0.7469387789490536  0.2530612281065574  0.25306122995194946  1.0000
  I   I4        1.0  0.2530612227361837  0.7469387825737028  0.7469387683387222  1.0000
  I   I5        1.0  0.2530612211672593  0.7469387713692152  0.2530612406855047  1.0000
  I   I6        1.0  0.7469387833072192  0.25306123094332167  0.7469387631272949  1.0000
