data_image0
_chemical_formula_structural       Se2NiF6
_chemical_formula_sum              "Se2 Ni1 F6"
_cell_length_a       5.123889621253541
_cell_length_b       5.123889660283475
_cell_length_c       5.123889623785521
_cell_angle_alpha    59.99999985845291
_cell_angle_beta     59.99999953535019
_cell_angle_gamma    59.99999914145171

_space_group_name_H-M_alt    "P 1"
_space_group_IT_number       1

loop_
  _space_group_symop_operation_xyz
  'x, y, z'

loop_
  _atom_site_type_symbol
  _atom_site_label
  _atom_site_symmetry_multiplicity
  _atom_site_fract_x
  _atom_site_fract_y
  _atom_site_fract_z
  _atom_site_occupancy
  Se  Se1       1.0  0.2499999259869055  0.2500000743111478  0.25000004476134846  1.0000
  Se  Se2       1.0  0.7499999979936578  0.7500000293220614  0.7499999376188844  1.0000
  Ni  Ni1       1.0  1.657169215370456e-08  0.9999999976097359  0.9999999870543589  1.0000
  F   F1        1.0  0.24858933822525234  0.24858932729734654  0.7514106551908488  1.0000
  F   F2        1.0  0.7514106700042417  0.7514106520421363  0.24858934721178208  1.0000
  F   F3        1.0  0.7514106842099085  0.24858931600851217  0.24858933630410543  1.0000
  F   F4        1.0  0.24858932495304148  0.7514106537699148  0.7514106743156099  1.0000
  F   F5        1.0  0.24858934853063874  0.7514106574583352  0.24858935710882116  1.0000
  F   F6        1.0  0.7514106925922909  0.24858929080771583  0.7514106639002313  1.0000
