data_image0
_chemical_formula_structural       Se2NiBr6
_chemical_formula_sum              "Se2 Ni1 Br6"
_cell_length_a       7.042532386046445
_cell_length_b       7.042532399824463
_cell_length_c       7.042532523591738
_cell_angle_alpha    59.99999965412219
_cell_angle_beta     59.99999972318127
_cell_angle_gamma    59.99999955591197

_space_group_name_H-M_alt    "P 1"
_space_group_IT_number       1

loop_
  _space_group_symop_operation_xyz
  'x, y, z'

loop_
  _atom_site_type_symbol
  _atom_site_label
  _atom_site_symmetry_multiplicity
  _atom_site_fract_x
  _atom_site_fract_y
  _atom_site_fract_z
  _atom_site_occupancy
  Se  Se1       1.0  0.2500000421497322  0.2500000155243893  0.24999995643110534  1.0000
  Se  Se2       1.0  0.7499999785859341  0.750000062224788  0.7500000149159866  1.0000
  Ni  Ni1       1.0  3.464778934037394e-08  0.9999999600014162  8.35517222730573e-09  1.0000
  Br  Br1       1.0  0.2421143205974339  0.2421142814960758  0.757885703809581  1.0000
  Br  Br2       1.0  0.7578856659565373  0.7578856971261768  0.2421143157325519  1.0000
  Br  Br3       1.0  0.7578856846181263  0.24211427096733595  0.24211433270868302  1.0000
  Br  Br4       1.0  0.2421143062749848  0.7578857093939857  0.7578856781145703  1.0000
  Br  Br5       1.0  0.2421142903981439  0.7578857069977798  0.242114292822732  1.0000
  Br  Br6       1.0  0.7578856755029835  0.24211429423236813  0.7578856973430004  1.0000
