data_image0
_chemical_formula_structural       Se2NCl6
_chemical_formula_sum              "Se2 N1 Cl6"
_cell_length_a       6.47540872094888
_cell_length_b       6.475408588179738
_cell_length_c       6.475408797771989
_cell_angle_alpha    59.99999964581634
_cell_angle_beta     59.999999143646704
_cell_angle_gamma    60.00000070494857

_space_group_name_H-M_alt    "P 1"
_space_group_IT_number       1

loop_
  _space_group_symop_operation_xyz
  'x, y, z'

loop_
  _atom_site_type_symbol
  _atom_site_label
  _atom_site_symmetry_multiplicity
  _atom_site_fract_x
  _atom_site_fract_y
  _atom_site_fract_z
  _atom_site_occupancy
  Se  Se1       1.0  0.2500000437093738  0.24999998560865283  0.2499999581928446  1.0000
  Se  Se2       1.0  0.750000075830091  0.7499999889793936  0.7499999957964191  1.0000
  N   N1        1.0  4.099524502211306e-08  3.2153432150266036e-08  0.9999996252230756  1.0000
  Cl  Cl1       1.0  0.23798018064104304  0.2379802079875177  0.7620198373702199  1.0000
  Cl  Cl2       1.0  0.762019736765374  0.7620197684919044  0.23798026306900172  1.0000
  Cl  Cl3       1.0  0.7620197071940742  0.237980306179847  0.23798028927356435  1.0000
  Cl  Cl4       1.0  0.23798016523337995  0.7620198159357217  0.7620198596725255  1.0000
  Cl  Cl5       1.0  0.23798025736331055  0.7620197180829518  0.23798033762123652  1.0000
  Cl  Cl6       1.0  0.7620198084110577  0.23798017706719737  0.7620198327670161  1.0000
