data_image0
_chemical_formula_structural       Se2NbCl6
_chemical_formula_sum              "Se2 Nb1 Cl6"
_cell_length_a       8.893291844931221
_cell_length_b       8.89329233354187
_cell_length_c       8.893291826447932
_cell_angle_alpha    60.000004517041056
_cell_angle_beta     60.0000019925729
_cell_angle_gamma    59.99998701184815

_space_group_name_H-M_alt    "P 1"
_space_group_IT_number       1

loop_
  _space_group_symop_operation_xyz
  'x, y, z'

loop_
  _atom_site_type_symbol
  _atom_site_label
  _atom_site_symmetry_multiplicity
  _atom_site_fract_x
  _atom_site_fract_y
  _atom_site_fract_z
  _atom_site_occupancy
  Se  Se1       1.0  0.250000576390725  0.25000050389279727  0.2499998953895534  1.0000
  Se  Se2       1.0  0.7499997223988237  0.7500003025360044  0.7500012109176921  1.0000
  Nb  Nb1       1.0  0.9999999633839588  0.9999999228792802  0.999999882579709  1.0000
  Cl  Cl1       1.0  0.18803613116411444  0.18803575571040848  0.8119641117857422  1.0000
  Cl  Cl2       1.0  0.8119639715864849  0.811963960011027  0.1880359635989665  1.0000
  Cl  Cl3       1.0  0.8119634232300247  0.18803641152854103  0.1880357209026255  1.0000
  Cl  Cl4       1.0  0.1880357527204775  0.8119637903290345  0.8119637832061652  1.0000
  Cl  Cl5       1.0  0.18803631473765942  0.8119635793234554  0.1880357732961937  1.0000
  Cl  Cl6       1.0  0.81196411503094  0.1880357824688713  0.8119635880294271  1.0000
