data_image0
_chemical_formula_structural       Se2OsBr6
_chemical_formula_sum              "Se2 Os1 Br6"
_cell_length_a       7.252646168302499
_cell_length_b       7.25264637174864
_cell_length_c       7.252646256350717
_cell_angle_alpha    60.00000007775446
_cell_angle_beta     59.99999915873762
_cell_angle_gamma    59.999999745888054

_space_group_name_H-M_alt    "P 1"
_space_group_IT_number       1

loop_
  _space_group_symop_operation_xyz
  'x, y, z'

loop_
  _atom_site_type_symbol
  _atom_site_label
  _atom_site_symmetry_multiplicity
  _atom_site_fract_x
  _atom_site_fract_y
  _atom_site_fract_z
  _atom_site_occupancy
  Se  Se1       1.0  0.25000002839559554  0.2499999364369288  0.25000000650543164  1.0000
  Se  Se2       1.0  0.7499999932913527  0.7500000085758373  0.7499999947864349  1.0000
  Os  Os1       1.0  0.9999999932618224  0.9999999915565658  0.9999999758782431  1.0000
  Br  Br1       1.0  0.24037925353841452  0.24037920370280302  0.7596207812993578  1.0000
  Br  Br2       1.0  0.7596207685817119  0.7596208021026901  0.24037921971331158  1.0000
  Br  Br3       1.0  0.75962073176797  0.24037923811250683  0.24037924024002372  1.0000
  Br  Br4       1.0  0.2403792281467457  0.7596208014667242  0.7596207667156399  1.0000
  Br  Br5       1.0  0.2403792273298488  0.759620796489775  0.24037922012951124  1.0000
  Br  Br6       1.0  0.7596207732402281  0.24037922620258698  0.7596207776995204  1.0000
