data_image0
_chemical_formula_structural       Se2OsF6
_chemical_formula_sum              "Se2 Os1 F6"
_cell_length_a       5.486263238765321
_cell_length_b       5.486263482874094
_cell_length_c       5.486263082197072
_cell_angle_alpha    60.000001771312725
_cell_angle_beta     60.00000152289796
_cell_angle_gamma    60.00000136777675

_space_group_name_H-M_alt    "P 1"
_space_group_IT_number       1

loop_
  _space_group_symop_operation_xyz
  'x, y, z'

loop_
  _atom_site_type_symbol
  _atom_site_label
  _atom_site_symmetry_multiplicity
  _atom_site_fract_x
  _atom_site_fract_y
  _atom_site_fract_z
  _atom_site_occupancy
  Se  Se1       1.0  0.2500000240851442  0.24999998747891444  0.24999995926159455  1.0000
  Se  Se2       1.0  0.7499999967811918  0.7500000941474162  0.7499999499169541  1.0000
  Os  Os1       1.0  0.9999999658358211  0.9999999888380784  5.729500222296888e-08  1.0000
  F   F1        1.0  0.2468909737313056  0.2468909880195185  0.7531090313606144  1.0000
  F   F2        1.0  0.7531090027464443  0.7531089931495185  0.24689101221384135  1.0000
  F   F3        1.0  0.7531090036720631  0.24689097188291323  0.2468910034281113  1.0000
  F   F4        1.0  0.246891014666491  0.7531089847298966  0.7531089932166355  1.0000
  F   F5        1.0  0.24689098957517902  0.7531089627476332  0.2468910085408453  1.0000
  F   F6        1.0  0.7531090321009994  0.24689100279471368  0.7531089929067266  1.0000
