data_image0
_chemical_formula_structural       Se2OsI6
_chemical_formula_sum              "Se2 Os1 I6"
_cell_length_a       7.450896361644745
_cell_length_b       7.4508963445420395
_cell_length_c       7.450896180151666
_cell_angle_alpha    60.000001201404416
_cell_angle_beta     60.00000028498936
_cell_angle_gamma    60.00000046130663

_space_group_name_H-M_alt    "P 1"
_space_group_IT_number       1

loop_
  _space_group_symop_operation_xyz
  'x, y, z'

loop_
  _atom_site_type_symbol
  _atom_site_label
  _atom_site_symmetry_multiplicity
  _atom_site_fract_x
  _atom_site_fract_y
  _atom_site_fract_z
  _atom_site_occupancy
  Se  Se1       1.0  0.24999999264760742  0.2500000334113001  0.24999999492008765  1.0000
  Se  Se2       1.0  0.7499999915011529  0.7499999851710459  0.7500000247755608  1.0000
  Os  Os1       1.0  0.9999999871481127  0.9999999967124896  0.9999999718324472  1.0000
  I   I1        1.0  0.2528729555389565  0.2528729411993352  0.7471270595691488  1.0000
  I   I2        1.0  0.7471270436694942  0.7471270461516647  0.2528729601596047  1.0000
  I   I3        1.0  0.7471270482565647  0.252872946776267  0.25287295483367994  1.0000
  I   I4        1.0  0.25287293050702014  0.7471270833123645  0.7471270443538479  1.0000
  I   I5        1.0  0.25287297234569106  0.7471270353161786  0.2528729549101351  1.0000
  I   I6        1.0  0.7471270748270425  0.25287292902225017  0.7471270375794375  1.0000
