data_image0
_chemical_formula_structural       Se2OsCl6
_chemical_formula_sum              "Se2 Os1 Cl6"
_cell_length_a       6.95133774905223
_cell_length_b       6.9513375481071416
_cell_length_c       6.951337853354621
_cell_angle_alpha    59.99999863356432
_cell_angle_beta     59.99999902706015
_cell_angle_gamma    59.999997367732284

_space_group_name_H-M_alt    "P 1"
_space_group_IT_number       1

loop_
  _space_group_symop_operation_xyz
  'x, y, z'

loop_
  _atom_site_type_symbol
  _atom_site_label
  _atom_site_symmetry_multiplicity
  _atom_site_fract_x
  _atom_site_fract_y
  _atom_site_fract_z
  _atom_site_occupancy
  Se  Se1       1.0  0.24999994898850983  0.2500002103671553  0.25000003227111656  1.0000
  Se  Se2       1.0  0.7499999119799097  0.7499998928721526  0.7499999500606234  1.0000
  Os  Os1       1.0  1.9648436173233926e-08  0.9999999859049293  4.416177158347024e-09  1.0000
  Cl  Cl1       1.0  0.23256539441172627  0.23256549090150327  0.7674344784916941  1.0000
  Cl  Cl2       1.0  0.767434616814701  0.767434485482169  0.2325654087016833  1.0000
  Cl  Cl3       1.0  0.7674345891104531  0.23256540293828543  0.23256545817530094  1.0000
  Cl  Cl4       1.0  0.2325655311971712  0.76743451530322  0.767434551721477  1.0000
  Cl  Cl5       1.0  0.23256549868950208  0.7674345208650641  0.23256552869579425  1.0000
  Cl  Cl6       1.0  0.7674345120331039  0.23256548194686577  0.7674346001626091  1.0000
