data_image0
_chemical_formula_structural       Se2PtI6
_chemical_formula_sum              "Se2 Pt1 I6"
_cell_length_a       7.417347359154775
_cell_length_b       7.417347379693314
_cell_length_c       7.417347329557358
_cell_angle_alpha    59.99999989918865
_cell_angle_beta     60.000000219493444
_cell_angle_gamma    59.99999983817706

_space_group_name_H-M_alt    "P 1"
_space_group_IT_number       1

loop_
  _space_group_symop_operation_xyz
  'x, y, z'

loop_
  _atom_site_type_symbol
  _atom_site_label
  _atom_site_symmetry_multiplicity
  _atom_site_fract_x
  _atom_site_fract_y
  _atom_site_fract_z
  _atom_site_occupancy
  Se  Se1       1.0  0.25000000165380226  0.24999999397346465  0.250000006487259  1.0000
  Se  Se2       1.0  0.7500000020205575  0.7500000000834826  0.7500000024133213  1.0000
  Pt  Pt1       1.0  0.9999999816966518  0.999999980185722  0.999999977264896  1.0000
  I   I1        1.0  0.25300113736831914  0.25300112529121527  0.746998869625113  1.0000
  I   I2        1.0  0.7469988860717125  0.7469988935335795  0.25300110622318045  1.0000
  I   I3        1.0  0.7469988692825237  0.25300113345189446  0.2530011243595345  1.0000
  I   I4        1.0  0.25300110470282317  0.7469988936288496  0.7469988977037535  1.0000
  I   I5        1.0  0.2530011284371503  0.7469988724922221  0.2530011237242675  1.0000
  I   I6        1.0  0.7469988910880764  0.25300110670401615  0.7469988927703793  1.0000
