data_image0
_chemical_formula_structural       Se2PbBr6
_chemical_formula_sum              "Se2 Pb1 Br6"
_cell_length_a       7.280657859898792
_cell_length_b       7.280657804157253
_cell_length_c       7.280657893568247
_cell_angle_alpha    59.999999238527764
_cell_angle_beta     59.999999235629694
_cell_angle_gamma    59.99999933707292

_space_group_name_H-M_alt    "P 1"
_space_group_IT_number       1

loop_
  _space_group_symop_operation_xyz
  'x, y, z'

loop_
  _atom_site_type_symbol
  _atom_site_label
  _atom_site_symmetry_multiplicity
  _atom_site_fract_x
  _atom_site_fract_y
  _atom_site_fract_z
  _atom_site_occupancy
  Se  Se1       1.0  0.2499999899944129  0.2500000246275247  0.2499999830634015  1.0000
  Se  Se2       1.0  0.7500000348821885  0.7499999695868019  0.7499999524065885  1.0000
  Pb  Pb1       1.0  4.293427315985728e-09  0.9999999966356202  3.7993539243617056e-08  1.0000
  Br  Br1       1.0  0.2633087252722837  0.26330872949741324  0.7366912729485152  1.0000
  Br  Br2       1.0  0.7366912648088797  0.7366912596703437  0.26330874012957334  1.0000
  Br  Br3       1.0  0.736691279705503  0.26330873479916866  0.26330871584804466  1.0000
  Br  Br4       1.0  0.2633087303365139  0.7366912610973478  0.7366912852587395  1.0000
  Br  Br5       1.0  0.26330873110744074  0.7366912770497142  0.26330873092625684  1.0000
  Br  Br6       1.0  0.7366912499058371  0.2633087440796504  0.7366912913075043  1.0000
