data_image0
_chemical_formula_structural       Se2PtCl6
_chemical_formula_sum              "Se2 Pt1 Cl6"
_cell_length_a       6.805381928967905
_cell_length_b       6.805381674942818
_cell_length_c       6.805381828983762
_cell_angle_alpha    59.99999603390487
_cell_angle_beta     59.999999516109376
_cell_angle_gamma    59.999997457560035

_space_group_name_H-M_alt    "P 1"
_space_group_IT_number       1

loop_
  _space_group_symop_operation_xyz
  'x, y, z'

loop_
  _atom_site_type_symbol
  _atom_site_label
  _atom_site_symmetry_multiplicity
  _atom_site_fract_x
  _atom_site_fract_y
  _atom_site_fract_z
  _atom_site_occupancy
  Se  Se1       1.0  0.25000000009671103  0.250000156755667  0.2499998762668917  1.0000
  Se  Se2       1.0  0.7499999987730205  0.749999986155447  0.7500000214963973  1.0000
  Pt  Pt1       1.0  0.9999999842323195  0.9999999964006585  0.9999999817644312  1.0000
  Cl  Cl1       1.0  0.23908500197678148  0.23908487904042547  0.7609151608123669  1.0000
  Cl  Cl2       1.0  0.7609150433433401  0.7609150227147445  0.2390849988793342  1.0000
  Cl  Cl3       1.0  0.7609150459346222  0.23908498200343511  0.2390849013048728  1.0000
  Cl  Cl4       1.0  0.2390848892998167  0.7609150871211596  0.7609150872107032  1.0000
  Cl  Cl5       1.0  0.23908492357209235  0.7609150250555483  0.23908491446370742  1.0000
  Cl  Cl6       1.0  0.7609151132642983  0.239084876699628  0.7609150525668704  1.0000
