data_image0
_chemical_formula_structural       Se2PCl6
_chemical_formula_sum              "Se2 P1 Cl6"
_cell_length_a       7.496060801307475
_cell_length_b       7.4960485655564595
_cell_length_c       7.4960403866565715
_cell_angle_alpha    59.99994140057032
_cell_angle_beta     60.000066636074564
_cell_angle_gamma    60.00001900376022

_space_group_name_H-M_alt    "P 1"
_space_group_IT_number       1

loop_
  _space_group_symop_operation_xyz
  'x, y, z'

loop_
  _atom_site_type_symbol
  _atom_site_label
  _atom_site_symmetry_multiplicity
  _atom_site_fract_x
  _atom_site_fract_y
  _atom_site_fract_z
  _atom_site_occupancy
  Se  Se1       1.0  0.24999159459723372  0.25000610236203324  0.2500059184875976  1.0000
  Se  Se2       1.0  0.7499986071988719  0.7500032527732485  0.7500022197015811  1.0000
  P   P1        1.0  1.1646513206967797e-06  0.9999985671108377  0.9999991802828297  1.0000
  Cl  Cl1       1.0  0.2002036858393131  0.20018870829720833  0.7998012553794334  1.0000
  Cl  Cl2       1.0  0.7998080925582501  0.7998003870657102  0.20019043473640766  1.0000
  Cl  Cl3       1.0  0.7998050861359015  0.20019704876776334  0.20019374243093005  1.0000
  Cl  Cl4       1.0  0.2001992126097334  0.7997985885446104  0.7997994757586748  1.0000
  Cl  Cl5       1.0  0.20019290913722146  0.7998093563310887  0.20019746849220155  1.0000
  Cl  Cl6       1.0  0.7998001203753653  0.20019768036666835  0.7998095546043814  1.0000
