data_image0
_chemical_formula_structural       Se2PI6
_chemical_formula_sum              "Se2 P1 I6"
_cell_length_a       7.49235707873101
_cell_length_b       7.492357020701508
_cell_length_c       7.492356862852938
_cell_angle_alpha    60.00000107024285
_cell_angle_beta     60.000001124362385
_cell_angle_gamma    60.000000435385004

_space_group_name_H-M_alt    "P 1"
_space_group_IT_number       1

loop_
  _space_group_symop_operation_xyz
  'x, y, z'

loop_
  _atom_site_type_symbol
  _atom_site_label
  _atom_site_symmetry_multiplicity
  _atom_site_fract_x
  _atom_site_fract_y
  _atom_site_fract_z
  _atom_site_occupancy
  Se  Se1       1.0  0.25000001945865136  0.250000001895526  0.250000019524643  1.0000
  Se  Se2       1.0  0.7499999902065085  0.7499999975132828  0.7500000046514478  1.0000
  P   P1        1.0  7.78330384478694e-09  2.2885225507121294e-08  0.9999999726534939  1.0000
  I   I1        1.0  0.25960015458181235  0.2596001645398142  0.7403998384573937  1.0000
  I   I2        1.0  0.7403998576208038  0.7403998365036534  0.25960014492652816  1.0000
  I   I3        1.0  0.7403998559626773  0.259600123579396  0.25960016767518296  1.0000
  I   I4        1.0  0.25960013821332256  0.7403998529441872  0.7403998543330046  1.0000
  I   I5        1.0  0.2596001417724857  0.740399839777902  0.2596001567277953  1.0000
  I   I6        1.0  0.7403998340803949  0.2596001547269297  0.7403998467656188  1.0000
