data_image0
_chemical_formula_structural       Se2PBr6
_chemical_formula_sum              "Se2 P1 Br6"
_cell_length_a       7.256469252797056
_cell_length_b       7.256469410877957
_cell_length_c       7.256469386751422
_cell_angle_alpha    59.999999007915285
_cell_angle_beta     60.000000936071345
_cell_angle_gamma    60.00000166085092

_space_group_name_H-M_alt    "P 1"
_space_group_IT_number       1

loop_
  _space_group_symop_operation_xyz
  'x, y, z'

loop_
  _atom_site_type_symbol
  _atom_site_label
  _atom_site_symmetry_multiplicity
  _atom_site_fract_x
  _atom_site_fract_y
  _atom_site_fract_z
  _atom_site_occupancy
  Se  Se1       1.0  0.2500000073932591  0.2500000527460427  0.25000001853808745  1.0000
  Se  Se2       1.0  0.750000067460715  0.7500000367167342  0.7499998939127989  1.0000
  P   P1        1.0  0.9999999853889869  1.5190173673082322e-08  4.656516128217756e-08  1.0000
  Br  Br1       1.0  0.23605188315472514  0.23605179695201017  0.763948163943719  1.0000
  Br  Br2       1.0  0.7639479822169853  0.7639481237310424  0.23605195968745057  1.0000
  Br  Br3       1.0  0.7639480779442731  0.23605188249749678  0.23605186205460982  1.0000
  Br  Br4       1.0  0.2360519677870358  0.7639480651903162  0.7639480462698499  1.0000
  Br  Br5       1.0  0.23605193900500993  0.7639480934366474  0.23605188301306665  1.0000
  Br  Br6       1.0  0.7639480921786933  0.23605192176305057  0.7639481559304462  1.0000
