data_image0
_chemical_formula_structural       Se2PdCl6
_chemical_formula_sum              "Se2 Pd1 Cl6"
_cell_length_a       6.825030098431094
_cell_length_b       6.825030320465847
_cell_length_c       6.8250301098140636
_cell_angle_alpha    60.00000051090948
_cell_angle_beta     59.99999791568468
_cell_angle_gamma    59.999999260963584

_space_group_name_H-M_alt    "P 1"
_space_group_IT_number       1

loop_
  _space_group_symop_operation_xyz
  'x, y, z'

loop_
  _atom_site_type_symbol
  _atom_site_label
  _atom_site_symmetry_multiplicity
  _atom_site_fract_x
  _atom_site_fract_y
  _atom_site_fract_z
  _atom_site_occupancy
  Se  Se1       1.0  0.2500001101836799  0.250000101395027  0.24999984766865876  1.0000
  Se  Se2       1.0  0.7499998064522884  0.7500001660093588  0.7500000309190867  1.0000
  Pd  Pd1       1.0  3.532383399705631e-08  1.0766939525481236e-08  0.9999999974673427  1.0000
  Cl  Cl1       1.0  0.24132563954989036  0.24132558448200558  0.7586744273360585  1.0000
  Cl  Cl2       1.0  0.7586743826209075  0.7586742648062106  0.24132571596678712  1.0000
  Cl  Cl3       1.0  0.7586743142125315  0.24132559857735605  0.2413256631022849  1.0000
  Cl  Cl4       1.0  0.24132569327685485  0.7586743404353598  0.7586743064158813  1.0000
  Cl  Cl5       1.0  0.2413256708560992  0.7586743125427057  0.24132566011065312  1.0000
  Cl  Cl6       1.0  0.7586743597387919  0.24132559775816995  0.7586743517709458  1.0000
