data_image0
_chemical_formula_structural       Se2PtBr6
_chemical_formula_sum              "Se2 Pt1 Br6"
_cell_length_a       7.123222011358469
_cell_length_b       7.123222042901741
_cell_length_c       7.123221910951349
_cell_angle_alpha    59.999999586595635
_cell_angle_beta     59.999999077075074
_cell_angle_gamma    59.999999149447014

_space_group_name_H-M_alt    "P 1"
_space_group_IT_number       1

loop_
  _space_group_symop_operation_xyz
  'x, y, z'

loop_
  _atom_site_type_symbol
  _atom_site_label
  _atom_site_symmetry_multiplicity
  _atom_site_fract_x
  _atom_site_fract_y
  _atom_site_fract_z
  _atom_site_occupancy
  Se  Se1       1.0  0.25000000330726746  0.2500000651230686  0.2499999562409879  1.0000
  Se  Se2       1.0  0.7500000126273906  0.7499999684124677  0.7499999850601176  1.0000
  Pt  Pt1       1.0  3.618532131605426e-09  8.596846155796922e-09  0.9999999868730152  1.0000
  Br  Br1       1.0  0.2453438073789179  0.24534379861242092  0.754656199411507  1.0000
  Br  Br2       1.0  0.7546561830293504  0.7546561850614079  0.24534381468012584  1.0000
  Br  Br3       1.0  0.7546561755682768  0.24534381589891363  0.24534381165868926  1.0000
  Br  Br4       1.0  0.2453438128256248  0.7546561884073457  0.7546562169895162  1.0000
  Br  Br5       1.0  0.24534380056535354  0.7546561882197914  0.24534380035849288  1.0000
  Br  Br6       1.0  0.7546562068230711  0.24534378341845264  0.7546562267033041  1.0000
