data_image0
_chemical_formula_structural       Se2PtF6
_chemical_formula_sum              "Se2 Pt1 F6"
_cell_length_a       5.328194101656563
_cell_length_b       5.328193889270703
_cell_length_c       5.328194101639927
_cell_angle_alpha    60.000000453169584
_cell_angle_beta     59.999999405719
_cell_angle_gamma    59.9999974450167

_space_group_name_H-M_alt    "P 1"
_space_group_IT_number       1

loop_
  _space_group_symop_operation_xyz
  'x, y, z'

loop_
  _atom_site_type_symbol
  _atom_site_label
  _atom_site_symmetry_multiplicity
  _atom_site_fract_x
  _atom_site_fract_y
  _atom_site_fract_z
  _atom_site_occupancy
  Se  Se1       1.0  0.24999995676774178  0.2500001442798722  0.2500002236838322  1.0000
  Se  Se2       1.0  0.7500003783260537  0.749999740957474  0.7500003069166754  1.0000
  Pt  Pt1       1.0  0.9999999350943516  3.2180561303883464e-08  0.9999998399425449  1.0000
  F   F1        1.0  0.258342193251755  0.2583422492400159  0.7416577056725098  1.0000
  F   F2        1.0  0.7416577645359497  0.7416577991987512  0.25834211744544594  1.0000
  F   F3        1.0  0.7416577415160045  0.25834221666830176  0.2583421634051294  1.0000
  F   F4        1.0  0.25834213534343486  0.7416577949926806  0.7416577373339361  1.0000
  F   F5        1.0  0.2583421633757292  0.7416577910961338  0.2583421363674899  1.0000
  F   F6        1.0  0.7416577557976228  0.25834223665512906  0.7416577220318196  1.0000
