data_image0
_chemical_formula_structural       Se2PF6
_chemical_formula_sum              "Se2 P1 F6"
_cell_length_a       6.075669642298376
_cell_length_b       6.075669736772254
_cell_length_c       6.0756700914634125
_cell_angle_alpha    60.00000208053988
_cell_angle_beta     59.999996480684395
_cell_angle_gamma    59.999999218492874

_space_group_name_H-M_alt    "P 1"
_space_group_IT_number       1

loop_
  _space_group_symop_operation_xyz
  'x, y, z'

loop_
  _atom_site_type_symbol
  _atom_site_label
  _atom_site_symmetry_multiplicity
  _atom_site_fract_x
  _atom_site_fract_y
  _atom_site_fract_z
  _atom_site_occupancy
  Se  Se1       1.0  0.2500000366058382  0.25000006248822804  0.25000006698221966  1.0000
  Se  Se2       1.0  0.7500000152916196  0.7500000947370091  0.7499999225980112  1.0000
  P   P1        1.0  7.967766717797829e-09  0.9999999475887175  7.653675280592017e-08  1.0000
  F   F1        1.0  0.19059819272401274  0.19059799645427755  0.8094018978805323  1.0000
  F   F2        1.0  0.8094018213769903  0.8094019833789106  0.19059804293259155  1.0000
  F   F3        1.0  0.809401953947512  0.19059804524415416  0.19059810761494378  1.0000
  F   F4        1.0  0.1905980841127411  0.8094018741144777  0.8094019304594624  1.0000
  F   F5        1.0  0.1905980635915873  0.8094018132246434  0.19059812674909773  1.0000
  F   F6        1.0  0.8094019075844004  0.19059815854527173  0.8094018576631695  1.0000
