data_image0
_chemical_formula_structural       Se2PF6
_chemical_formula_sum              "Se2 P1 F6"
_cell_length_a       6.076775002361215
_cell_length_b       6.076774548775894
_cell_length_c       6.076772782764305
_cell_angle_alpha    59.99999327076401
_cell_angle_beta     59.999994433755276
_cell_angle_gamma    59.999994669428716

_space_group_name_H-M_alt    "P 1"
_space_group_IT_number       1

loop_
  _space_group_symop_operation_xyz
  'x, y, z'

loop_
  _atom_site_type_symbol
  _atom_site_label
  _atom_site_symmetry_multiplicity
  _atom_site_fract_x
  _atom_site_fract_y
  _atom_site_fract_z
  _atom_site_occupancy
  Se  Se1       1.0  0.24999977429546347  0.250000142017132  0.25000004486329347  1.0000
  Se  Se2       1.0  0.750000155095713  0.7500001640425323  0.7500003332990062  1.0000
  P   P1        1.0  0.9999999963149019  0.9999999939536507  0.9999999390413122  1.0000
  F   F1        1.0  0.19057509240792112  0.19057517285496864  0.8094249134018433  1.0000
  F   F2        1.0  0.8094249618854577  0.8094246615889177  0.1905749930380404  1.0000
  F   F3        1.0  0.809424792366838  0.19057527743217434  0.19057515376054868  1.0000
  F   F4        1.0  0.19057519971760328  0.8094246638306868  0.8094247369567529  1.0000
  F   F5        1.0  0.1905752206890518  0.8094247714732479  0.19057522008070354  1.0000
  F   F6        1.0  0.809424851684065  0.1905751113414949  0.8094246580707057  1.0000
