data_image0
_chemical_formula_structural       Se2PdBr6
_chemical_formula_sum              "Se2 Pd1 Br6"
_cell_length_a       7.140761403292321
_cell_length_b       7.140761523145791
_cell_length_c       7.140761514173751
_cell_angle_alpha    59.99999865621557
_cell_angle_beta     59.999998811656894
_cell_angle_gamma    59.99999978870548

_space_group_name_H-M_alt    "P 1"
_space_group_IT_number       1

loop_
  _space_group_symop_operation_xyz
  'x, y, z'

loop_
  _atom_site_type_symbol
  _atom_site_label
  _atom_site_symmetry_multiplicity
  _atom_site_fract_x
  _atom_site_fract_y
  _atom_site_fract_z
  _atom_site_occupancy
  Se  Se1       1.0  0.25000003978624546  0.2500000069625856  0.24999995353562132  1.0000
  Se  Se2       1.0  0.750000001036262  0.750000007166587  0.7500000078525169  1.0000
  Pd  Pd1       1.0  0.9999999756460809  5.145437881563927e-09  1.9407116739279167e-08  1.0000
  Br  Br1       1.0  0.24778743350500146  0.24778743625848443  0.752212553673985  1.0000
  Br  Br2       1.0  0.7522125653721611  0.7522125727252499  0.2477874326599561  1.0000
  Br  Br3       1.0  0.7522125374331922  0.24778745033103042  0.2477874547657408  1.0000
  Br  Br4       1.0  0.247787435195553  0.7522125500769735  0.7522125643847939  1.0000
  Br  Br5       1.0  0.24778743775258874  0.7522125429916109  0.24778745556656026  1.0000
  Br  Br6       1.0  0.7522125720852559  0.2477874282589105  0.7522125567573442  1.0000
