data_image0
_chemical_formula_structural       Se2PCl6
_chemical_formula_sum              "Se2 P1 Cl6"
_cell_length_a       7.495544329592287
_cell_length_b       7.49554609638563
_cell_length_c       7.49554630833129
_cell_angle_alpha    59.99998219994168
_cell_angle_beta     60.00001477188474
_cell_angle_gamma    60.000002311911416

_space_group_name_H-M_alt    "P 1"
_space_group_IT_number       1

loop_
  _space_group_symop_operation_xyz
  'x, y, z'

loop_
  _atom_site_type_symbol
  _atom_site_label
  _atom_site_symmetry_multiplicity
  _atom_site_fract_x
  _atom_site_fract_y
  _atom_site_fract_z
  _atom_site_occupancy
  Se  Se1       1.0  0.25000033262084526  0.25000028127660284  0.24999959164009464  1.0000
  Se  Se2       1.0  0.7499991685844601  0.7499999909008142  0.7499994049346732  1.0000
  P   P1        1.0  2.439008824245103e-07  0.9999999199357008  2.302671455695859e-07  1.0000
  Cl  Cl1       1.0  0.2001832820367404  0.20018321848847373  0.7998173470206794  1.0000
  Cl  Cl2       1.0  0.7998170578208114  0.7998167791829113  0.20018195049403992  1.0000
  Cl  Cl3       1.0  0.7998162323747683  0.20018310665941147  0.20018435013992256  1.0000
  Cl  Cl4       1.0  0.2001839839936761  0.7998168501625126  0.7998163143069893  1.0000
  Cl  Cl5       1.0  0.20018282325627387  0.7998164216630941  0.20018372329670606  1.0000
  Cl  Cl6       1.0  0.7998169982889014  0.20018353189092522  0.7998169814347801  1.0000
