data_image0
_chemical_formula_structural       Se2ReBr6
_chemical_formula_sum              "Se2 Re1 Br6"
_cell_length_a       7.282359317309894
_cell_length_b       7.282359199846093
_cell_length_c       7.28235947515289
_cell_angle_alpha    60.000000443408666
_cell_angle_beta     60.00000015642246
_cell_angle_gamma    60.000002260849165

_space_group_name_H-M_alt    "P 1"
_space_group_IT_number       1

loop_
  _space_group_symop_operation_xyz
  'x, y, z'

loop_
  _atom_site_type_symbol
  _atom_site_label
  _atom_site_symmetry_multiplicity
  _atom_site_fract_x
  _atom_site_fract_y
  _atom_site_fract_z
  _atom_site_occupancy
  Se  Se1       1.0  0.24999996854474676  0.24999999188861688  0.2500000071155223  1.0000
  Se  Se2       1.0  0.7499999931480201  0.7499999319391355  0.7499999912139467  1.0000
  Re  Re1       1.0  4.2828059186276713e-08  0.9999999714094557  2.995713813162191e-08  1.0000
  Br  Br1       1.0  0.24057174279889887  0.24057169523901317  0.7594282767021969  1.0000
  Br  Br2       1.0  0.7594282761984873  0.7594283278147541  0.2405717010355719  1.0000
  Br  Br3       1.0  0.7594282576244782  0.24057173815916824  0.24057174500759382  1.0000
  Br  Br4       1.0  0.24057170232048483  0.7594283050761601  0.7594282974805896  1.0000
  Br  Br5       1.0  0.24057170860833943  0.7594283153246006  0.24057170531376373  1.0000
  Br  Br6       1.0  0.7594283064648545  0.2405717195017441  0.7594282561411809  1.0000
