data_image0
_chemical_formula_structural       Se2RuF6
_chemical_formula_sum              "Se2 Ru1 F6"
_cell_length_a       6.043705428931599
_cell_length_b       6.04370498906851
_cell_length_c       6.043705611443763
_cell_angle_alpha    59.999997675874255
_cell_angle_beta     59.9999992274611
_cell_angle_gamma    59.99999847508814

_space_group_name_H-M_alt    "P 1"
_space_group_IT_number       1

loop_
  _space_group_symop_operation_xyz
  'x, y, z'

loop_
  _atom_site_type_symbol
  _atom_site_label
  _atom_site_symmetry_multiplicity
  _atom_site_fract_x
  _atom_site_fract_y
  _atom_site_fract_z
  _atom_site_occupancy
  Se  Se1       1.0  0.2500000053073748  0.24999961391560666  0.2499998676102652  1.0000
  Se  Se2       1.0  0.7499999436141946  0.7499996948950325  0.7499998808747226  1.0000
  Ru  Ru1       1.0  1.883427376043245e-08  8.105921222874796e-08  0.9999999566717137  1.0000
  F   F1        1.0  0.22225276053805385  0.22225293961235346  0.7777473884941114  1.0000
  F   F2        1.0  0.7777471546911904  0.7777473013792331  0.2222528075473687  1.0000
  F   F3        1.0  0.7777471772440161  0.22225279056225153  0.22225290855512272  1.0000
  F   F4        1.0  0.22225286122953133  0.7777473328934772  0.7777471390261006  1.0000
  F   F5        1.0  0.22225279480133983  0.7777472475199514  0.2222528020880778  1.0000
  F   F6        1.0  0.7777472378808001  0.22225297928627313  0.7777472446974085  1.0000
