data_image0
_chemical_formula_structural       Se2RuF6
_chemical_formula_sum              "Se2 Ru1 F6"
_cell_length_a       6.044020016493445
_cell_length_b       6.0440204532135375
_cell_length_c       6.0440189543359475
_cell_angle_alpha    60.0000077671632
_cell_angle_beta     60.000005851319294
_cell_angle_gamma    60.000002199944454

_space_group_name_H-M_alt    "P 1"
_space_group_IT_number       1

loop_
  _space_group_symop_operation_xyz
  'x, y, z'

loop_
  _atom_site_type_symbol
  _atom_site_label
  _atom_site_symmetry_multiplicity
  _atom_site_fract_x
  _atom_site_fract_y
  _atom_site_fract_z
  _atom_site_occupancy
  Se  Se1       1.0  0.24999983665755304  0.25000013212926775  0.2500002750833492  1.0000
  Se  Se2       1.0  0.7499996158042841  0.7500002565679741  0.7500002284141758  1.0000
  Ru  Ru1       1.0  5.3397551614462885e-08  0.9999999716307577  0.9999999097230186  1.0000
  F   F1        1.0  0.2222407622316903  0.22224057578640763  0.7777593262953431  1.0000
  F   F2        1.0  0.7777594389945423  0.7777592860534827  0.22224056989019209  1.0000
  F   F3        1.0  0.7777593703133892  0.22224060156299952  0.22224064399694946  1.0000
  F   F4        1.0  0.22224074482516284  0.7777592663560176  0.7777592690294673  1.0000
  F   F5        1.0  0.22224067037611894  0.7777593056586938  0.22224063661706484  1.0000
  F   F6        1.0  0.7777595111658191  0.22224058657681264  0.7777591532865872  1.0000
