data_image0
_chemical_formula_structural       Se2RuI6
_chemical_formula_sum              "Se2 Ru1 I6"
_cell_length_a       7.411697687210526
_cell_length_b       7.411697785897715
_cell_length_c       7.411697836568919
_cell_angle_alpha    59.999999715815555
_cell_angle_beta     59.99999950056623
_cell_angle_gamma    60.000000777244175

_space_group_name_H-M_alt    "P 1"
_space_group_IT_number       1

loop_
  _space_group_symop_operation_xyz
  'x, y, z'

loop_
  _atom_site_type_symbol
  _atom_site_label
  _atom_site_symmetry_multiplicity
  _atom_site_fract_x
  _atom_site_fract_y
  _atom_site_fract_z
  _atom_site_occupancy
  Se  Se1       1.0  0.2500000000573265  0.2500000051529265  0.25000001402318395  1.0000
  Se  Se2       1.0  0.7500000130135464  0.749999995629398  0.7499999861978442  1.0000
  Ru  Ru1       1.0  0.9999999824683885  4.792100551448687e-08  2.2583421541599894e-08  1.0000
  I   I1        1.0  0.25235575979776703  0.2523557730785422  0.7476442450266888  1.0000
  I   I2        1.0  0.747644218447535  0.7476442293562303  0.25235578797152286  1.0000
  I   I3        1.0  0.7476442358119259  0.2523557629185084  0.2523557508473864  1.0000
  I   I4        1.0  0.2523558162399596  0.7476441816805685  0.7476441891646148  1.0000
  I   I5        1.0  0.2523557692562896  0.7476442219780394  0.252355786133693  1.0000
  I   I6        1.0  0.7476442042206771  0.2523557854140786  0.7476442157379874  1.0000
