data_image0
_chemical_formula_structural       Se2RhBr6
_chemical_formula_sum              "Se2 Rh1 Br6"
_cell_length_a       7.0832718330273705
_cell_length_b       7.083271826401402
_cell_length_c       7.083271903190528
_cell_angle_alpha    59.99999990186005
_cell_angle_beta     59.99999833725182
_cell_angle_gamma    59.999998196750816

_space_group_name_H-M_alt    "P 1"
_space_group_IT_number       1

loop_
  _space_group_symop_operation_xyz
  'x, y, z'

loop_
  _atom_site_type_symbol
  _atom_site_label
  _atom_site_symmetry_multiplicity
  _atom_site_fract_x
  _atom_site_fract_y
  _atom_site_fract_z
  _atom_site_occupancy
  Se  Se1       1.0  0.2500000220185769  0.25000002228702034  0.24999998265054205  1.0000
  Se  Se2       1.0  0.7499999837246321  0.7499999959693312  0.7499999864450636  1.0000
  Rh  Rh1       1.0  0.9999999945500718  0.9999999723349345  3.773415106869033e-08  1.0000
  Br  Br1       1.0  0.24533017066941495  0.2453301771083228  0.7546698264918505  1.0000
  Br  Br2       1.0  0.7546698311381915  0.7546698480642956  0.24533016793718485  1.0000
  Br  Br3       1.0  0.7546698408373065  0.24533016836143143  0.24533015802042388  1.0000
  Br  Br4       1.0  0.24533018651075258  0.7546697997519882  0.7546698436973227  1.0000
  Br  Br5       1.0  0.24533015327411806  0.7546698319888268  0.2453301718948013  1.0000
  Br  Br6       1.0  0.754669811237131  0.24533018280939242  0.7546698294282895  1.0000
