data_image0
_chemical_formula_structural       Se2RuCl6
_chemical_formula_sum              "Se2 Ru1 Cl6"
_cell_length_a       6.790346842142406
_cell_length_b       6.79034639832505
_cell_length_c       6.790346519313165
_cell_angle_alpha    59.99999989979149
_cell_angle_beta     60.00000253690494
_cell_angle_gamma    59.99999996603951

_space_group_name_H-M_alt    "P 1"
_space_group_IT_number       1

loop_
  _space_group_symop_operation_xyz
  'x, y, z'

loop_
  _atom_site_type_symbol
  _atom_site_label
  _atom_site_symmetry_multiplicity
  _atom_site_fract_x
  _atom_site_fract_y
  _atom_site_fract_z
  _atom_site_occupancy
  Se  Se1       1.0  0.2499998254303251  0.2500001308152394  0.25000000847436027  1.0000
  Se  Se2       1.0  0.7500001107232219  0.7499999685865697  0.7499999790436905  1.0000
  Ru  Ru1       1.0  3.8236289247118847e-08  0.9999999567122569  6.943763694287336e-09  1.0000
  Cl  Cl1       1.0  0.23867111152606119  0.23867106730666887  0.7613289236151344  1.0000
  Cl  Cl2       1.0  0.7613288828248425  0.7613288932136307  0.23867112191713943  1.0000
  Cl  Cl3       1.0  0.7613288241956547  0.23867110146738568  0.23867118000300958  1.0000
  Cl  Cl4       1.0  0.2386711664624829  0.7613288446236661  0.7613288510274087  1.0000
  Cl  Cl5       1.0  0.23867118299699952  0.7613288869172579  0.2386711104191138  1.0000
  Cl  Cl6       1.0  0.7613288493130905  0.23867116378584063  0.7613287900448288  1.0000
