data_image0
_chemical_formula_structural       Se2RhI6
_chemical_formula_sum              "Se2 Rh1 I6"
_cell_length_a       7.384477446681307
_cell_length_b       7.3844775674851
_cell_length_c       7.3844774871077385
_cell_angle_alpha    59.99999984254068
_cell_angle_beta     60.00000061244665
_cell_angle_gamma    60.00000002176295

_space_group_name_H-M_alt    "P 1"
_space_group_IT_number       1

loop_
  _space_group_symop_operation_xyz
  'x, y, z'

loop_
  _atom_site_type_symbol
  _atom_site_label
  _atom_site_symmetry_multiplicity
  _atom_site_fract_x
  _atom_site_fract_y
  _atom_site_fract_z
  _atom_site_occupancy
  Se  Se1       1.0  0.24999997880330876  0.2499999965995086  0.2500000245265653  1.0000
  Se  Se2       1.0  0.750000043388286  0.7499999831643672  0.7499999827818373  1.0000
  Rh  Rh1       1.0  0.9999999347343509  8.790260074823205e-08  3.5776349503160356e-09  1.0000
  I   I1        1.0  0.25137219448825365  0.2513722612228224  0.7486277798314602  1.0000
  I   I2        1.0  0.7486277296165562  0.7486277782484807  0.25137224802081215  1.0000
  I   I3        1.0  0.7486278026997356  0.2513721955512367  0.25137218469938416  1.0000
  I   I4        1.0  0.2513722768279485  0.7486277294808321  0.7486276980754097  1.0000
  I   I5        1.0  0.2513722162576164  0.7486277819868169  0.2513722637355726  1.0000
  I   I6        1.0  0.7486278223133943  0.2513721861672808  0.7486278197311446  1.0000
