data_image0
_chemical_formula_structural       Se2RhCl6
_chemical_formula_sum              "Se2 Rh1 Cl6"
_cell_length_a       6.681242437300377
_cell_length_b       6.681242228307954
_cell_length_c       6.681242163992787
_cell_angle_alpha    60.00000098104857
_cell_angle_beta     60.00000096493645
_cell_angle_gamma    60.000000278042826

_space_group_name_H-M_alt    "P 1"
_space_group_IT_number       1

loop_
  _space_group_symop_operation_xyz
  'x, y, z'

loop_
  _atom_site_type_symbol
  _atom_site_label
  _atom_site_symmetry_multiplicity
  _atom_site_fract_x
  _atom_site_fract_y
  _atom_site_fract_z
  _atom_site_occupancy
  Se  Se1       1.0  0.2500000600074807  0.25000019959941927  0.24999971774990903  1.0000
  Se  Se2       1.0  0.7500000555241575  0.7500001790161851  0.7499998759049319  1.0000
  Rh  Rh1       1.0  7.245588273006576e-09  0.9999999523391527  8.233807876336174e-09  1.0000
  Cl  Cl1       1.0  0.24343801349598596  0.2434379561821622  0.7565620689502897  1.0000
  Cl  Cl2       1.0  0.7565619264590411  0.7565619018303444  0.2434380793428219  1.0000
  Cl  Cl3       1.0  0.7565619742530351  0.24343798771259537  0.2434380731087506  1.0000
  Cl  Cl4       1.0  0.2434379973859523  0.7565619307925249  0.7565620216124359  1.0000
  Cl  Cl5       1.0  0.2434379896519373  0.7565619133535942  0.2434381021737887  1.0000
  Cl  Cl6       1.0  0.7565619587167883  0.24343798682043086  0.7565620283153529  1.0000
