data_image0
_chemical_formula_structural       Se2ReI6
_chemical_formula_sum              "Se2 Re1 I6"
_cell_length_a       7.522003340508258
_cell_length_b       7.522003347869898
_cell_length_c       7.522003364218315
_cell_angle_alpha    59.99999947376166
_cell_angle_beta     59.99999945728649
_cell_angle_gamma    60.000000854370974

_space_group_name_H-M_alt    "P 1"
_space_group_IT_number       1

loop_
  _space_group_symop_operation_xyz
  'x, y, z'

loop_
  _atom_site_type_symbol
  _atom_site_label
  _atom_site_symmetry_multiplicity
  _atom_site_fract_x
  _atom_site_fract_y
  _atom_site_fract_z
  _atom_site_occupancy
  Se  Se1       1.0  0.24999998756009734  0.24999999140412302  0.2500000151978515  1.0000
  Se  Se2       1.0  0.7500000016776007  0.749999995379182  0.749999986263966  1.0000
  Re  Re1       1.0  1.2807538990831345e-08  2.6051461438066648e-08  7.159160987073976e-09  1.0000
  I   I1        1.0  0.2504428958447657  0.2504428970706315  0.7495571105977424  1.0000
  I   I2        1.0  0.7495570637764681  0.7495570864562404  0.25044292857145284  1.0000
  I   I3        1.0  0.7495570990587916  0.25044290305735906  0.2504429090981948  1.0000
  I   I4        1.0  0.25044293406086404  0.749557090238812  0.7495570512130141  1.0000
  I   I5        1.0  0.2504429070446266  0.7495571180340649  0.25044290154525084  1.0000
  I   I6        1.0  0.7495570944578718  0.25044289642891815  0.7495570839326268  1.0000
