data_image0
_chemical_formula_structural       Se2RuI6
_chemical_formula_sum              "Se2 Ru1 I6"
_cell_length_a       7.407952935467348
_cell_length_b       7.407952986749991
_cell_length_c       7.407952965224074
_cell_angle_alpha    59.99999982315306
_cell_angle_beta     60.000000008419626
_cell_angle_gamma    59.999999633584956

_space_group_name_H-M_alt    "P 1"
_space_group_IT_number       1

loop_
  _space_group_symop_operation_xyz
  'x, y, z'

loop_
  _atom_site_type_symbol
  _atom_site_label
  _atom_site_symmetry_multiplicity
  _atom_site_fract_x
  _atom_site_fract_y
  _atom_site_fract_z
  _atom_site_occupancy
  Se  Se1       1.0  0.24999999105775392  0.24999999750779145  0.2500000091655501  1.0000
  Se  Se2       1.0  0.7500000068196946  0.7499999991365095  0.7499999979175623  1.0000
  Ru  Ru1       1.0  1.57764150409435e-08  0.9999999900802972  0.9999999592744276  1.0000
  I   I1        1.0  0.252363421537762  0.25236341283621994  0.747636579156878  1.0000
  I   I2        1.0  0.747636580464785  0.7476365854613648  0.2523634155877393  1.0000
  I   I3        1.0  0.7476365766866352  0.25236342144290425  0.2523634214674137  1.0000
  I   I4        1.0  0.2523633902674079  0.747636616533492  0.7476366060594648  1.0000
  I   I5        1.0  0.25236340713312744  0.7476365918779868  0.25236340462711204  1.0000
  I   I6        1.0  0.7476366098273041  0.2523633849269082  0.7476366082338141  1.0000
