data_image0
_chemical_formula_structural       Se2RuBr6
_chemical_formula_sum              "Se2 Ru1 Br6"
_cell_length_a       7.173638465940987
_cell_length_b       7.1736383966841455
_cell_length_c       7.173638516738554
_cell_angle_alpha    59.99999948611919
_cell_angle_beta     59.99999916074737
_cell_angle_gamma    59.999999510561054

_space_group_name_H-M_alt    "P 1"
_space_group_IT_number       1

loop_
  _space_group_symop_operation_xyz
  'x, y, z'

loop_
  _atom_site_type_symbol
  _atom_site_label
  _atom_site_symmetry_multiplicity
  _atom_site_fract_x
  _atom_site_fract_y
  _atom_site_fract_z
  _atom_site_occupancy
  Se  Se1       1.0  0.2499999835102695  0.25000001563527524  0.25000003443633184  1.0000
  Se  Se2       1.0  0.7499999953581806  0.7499999751998345  0.7500000400787041  1.0000
  Ru  Ru1       1.0  1.998246666820368e-08  0.9999999931708581  4.575279447384015e-09  1.0000
  Br  Br1       1.0  0.24403761174356292  0.24403761776666266  0.7559623874449521  1.0000
  Br  Br2       1.0  0.7559623899360775  0.755962386726731  0.244037607499666  1.0000
  Br  Br3       1.0  0.7559623990979396  0.24403756794410078  0.2440376263021577  1.0000
  Br  Br4       1.0  0.24403763223878544  0.7559624006962974  0.7559623410725758  1.0000
  Br  Br5       1.0  0.24403758630153202  0.7559624078318352  0.24403760409894948  1.0000
  Br  Br6       1.0  0.7559623856233827  0.24403763763641034  0.7559623517797801  1.0000
