data_image0
_chemical_formula_structural       Se2RhI6
_chemical_formula_sum              "Se2 Rh1 I6"
_cell_length_a       7.384873326429851
_cell_length_b       7.384873344507437
_cell_length_c       7.384873339941579
_cell_angle_alpha    59.99999971975319
_cell_angle_beta     60.00000026036109
_cell_angle_gamma    60.00000024181871

_space_group_name_H-M_alt    "P 1"
_space_group_IT_number       1

loop_
  _space_group_symop_operation_xyz
  'x, y, z'

loop_
  _atom_site_type_symbol
  _atom_site_label
  _atom_site_symmetry_multiplicity
  _atom_site_fract_x
  _atom_site_fract_y
  _atom_site_fract_z
  _atom_site_occupancy
  Se  Se1       1.0  0.2500000099942889  0.24999999256871092  0.2500000068853109  1.0000
  Se  Se2       1.0  0.7500000089135224  0.7499999893152881  0.7499999752836108  1.0000
  Rh  Rh1       1.0  0.9999999602622756  6.633803054791595e-09  0.9999999759283796  1.0000
  I   I1        1.0  0.2513381774146216  0.25133818919765055  0.7486618153859987  1.0000
  I   I2        1.0  0.7486618360435956  0.7486618324891664  0.25133816856398206  1.0000
  I   I3        1.0  0.7486618238298482  0.25133818041804634  0.2513381852461847  1.0000
  I   I4        1.0  0.25133815698241624  0.748661831318066  0.7486618443762731  1.0000
  I   I5        1.0  0.25133817007084125  0.7486618153734114  0.2513381909576478  1.0000
  I   I6        1.0  0.748661855739045  0.2513381598767845  0.7486618384713157  1.0000
