data_image0
_chemical_formula_structural       Se2RhBr6
_chemical_formula_sum              "Se2 Rh1 Br6"
_cell_length_a       7.08341112170361
_cell_length_b       7.083411135922959
_cell_length_c       7.083411144836366
_cell_angle_alpha    60.00000053169003
_cell_angle_beta     59.999999281486204
_cell_angle_gamma    60.00000079715463

_space_group_name_H-M_alt    "P 1"
_space_group_IT_number       1

loop_
  _space_group_symop_operation_xyz
  'x, y, z'

loop_
  _atom_site_type_symbol
  _atom_site_label
  _atom_site_symmetry_multiplicity
  _atom_site_fract_x
  _atom_site_fract_y
  _atom_site_fract_z
  _atom_site_occupancy
  Se  Se1       1.0  0.25000000539085776  0.24999997724317272  0.24999999415388247  1.0000
  Se  Se2       1.0  0.7500000094202818  0.7500000008908211  0.7499999540806405  1.0000
  Rh  Rh1       1.0  2.5621867764530082e-08  0.999999967148381  0.9999999810268881  1.0000
  Br  Br1       1.0  0.24532657547823067  0.24532657946606415  0.7546734245996668  1.0000
  Br  Br2       1.0  0.7546734379654844  0.7546734418937446  0.24532656764612412  1.0000
  Br  Br3       1.0  0.7546734153654746  0.24532657387482174  0.2453265909634865  1.0000
  Br  Br4       1.0  0.2453265229756011  0.7546734820656384  0.7546734653075239  1.0000
  Br  Br5       1.0  0.24532658095537913  0.7546734153351001  0.2453265835248015  1.0000
  Br  Br6       1.0  0.7546734284878579  0.2453265593408291  0.7546734397101649  1.0000
