data_image0
_chemical_formula_structural       Se2RhF6
_chemical_formula_sum              "Se2 Rh1 F6"
_cell_length_a       5.2838991060882625
_cell_length_b       5.2838992014665065
_cell_length_c       5.283898992218253
_cell_angle_alpha    59.999994467583036
_cell_angle_beta     59.9999972937458
_cell_angle_gamma    59.99999699793461

_space_group_name_H-M_alt    "P 1"
_space_group_IT_number       1

loop_
  _space_group_symop_operation_xyz
  'x, y, z'

loop_
  _atom_site_type_symbol
  _atom_site_label
  _atom_site_symmetry_multiplicity
  _atom_site_fract_x
  _atom_site_fract_y
  _atom_site_fract_z
  _atom_site_occupancy
  Se  Se1       1.0  0.24999999198743078  0.2500001723136986  0.2500000581714056  1.0000
  Se  Se2       1.0  0.7499999007413184  0.7500001066761747  0.7500002507135041  1.0000
  Rh  Rh1       1.0  3.192008694088018e-08  0.9999999304635744  0.9999999639244583  1.0000
  F   F1        1.0  0.2575271470852087  0.2575270991676846  0.7424728337715976  1.0000
  F   F2        1.0  0.7424728734791983  0.742472855318887  0.25752703975034447  1.0000
  F   F3        1.0  0.7424727880089801  0.2575271514706427  0.2575271355576138  1.0000
  F   F4        1.0  0.2575271461576678  0.7424728261947336  0.7424728490605644  1.0000
  F   F5        1.0  0.2575272276671287  0.7424727694656423  0.2575271320356534  1.0000
  F   F6        1.0  0.7424728583697774  0.2575271131666154  0.7424728014534537  1.0000
