data_image0
_chemical_formula_structural       Se2RuBr6
_chemical_formula_sum              "Se2 Ru1 Br6"
_cell_length_a       7.173566684570816
_cell_length_b       7.173566616049012
_cell_length_c       7.173566725616775
_cell_angle_alpha    59.99999801859318
_cell_angle_beta     59.999998474886354
_cell_angle_gamma    59.999998933203635

_space_group_name_H-M_alt    "P 1"
_space_group_IT_number       1

loop_
  _space_group_symop_operation_xyz
  'x, y, z'

loop_
  _atom_site_type_symbol
  _atom_site_label
  _atom_site_symmetry_multiplicity
  _atom_site_fract_x
  _atom_site_fract_y
  _atom_site_fract_z
  _atom_site_occupancy
  Se  Se1       1.0  0.24999996175401  0.24999990568104163  0.2500000745181498  1.0000
  Se  Se2       1.0  0.7499999483427124  0.7500000106991728  0.750000052156114  1.0000
  Ru  Ru1       1.0  0.9999999823913787  0.9999999948780919  3.36693719821309e-08  1.0000
  Br  Br1       1.0  0.24403926297443063  0.244039279598506  0.7559607101982628  1.0000
  Br  Br2       1.0  0.7559607564954294  0.7559607819024311  0.24403921395270667  1.0000
  Br  Br3       1.0  0.7559607551245532  0.2440392725889758  0.24403926672346993  1.0000
  Br  Br4       1.0  0.2440392954170634  0.7559607633024221  0.7559606895465583  1.0000
  Br  Br5       1.0  0.2440392729663061  0.7559607402607149  0.24403926366581638  1.0000
  Br  Br6       1.0  0.7559607653815245  0.24403925977732852  0.7559606915356621  1.0000
