data_image0
_chemical_formula_structural       Se2RhF6
_chemical_formula_sum              "Se2 Rh1 F6"
_cell_length_a       5.28387214682092
_cell_length_b       5.283872268262799
_cell_length_c       5.283872501356624
_cell_angle_alpha    59.999995575644824
_cell_angle_beta     59.99999695389726
_cell_angle_gamma    59.999995225406614

_space_group_name_H-M_alt    "P 1"
_space_group_IT_number       1

loop_
  _space_group_symop_operation_xyz
  'x, y, z'

loop_
  _atom_site_type_symbol
  _atom_site_label
  _atom_site_symmetry_multiplicity
  _atom_site_fract_x
  _atom_site_fract_y
  _atom_site_fract_z
  _atom_site_occupancy
  Se  Se1       1.0  0.25000002859501985  0.2499997939319653  0.24999957802573372  1.0000
  Se  Se2       1.0  0.7499999590241822  0.750000070210011  0.7499998556311132  1.0000
  Rh  Rh1       1.0  7.94594531411924e-09  4.172206587845174e-08  1.019669334168478e-07  1.0000
  F   F1        1.0  0.25753499893701626  0.2575351853101365  0.7424650573217709  1.0000
  F   F2        1.0  0.7424648340273343  0.7424649198926673  0.25753516774722574  1.0000
  F   F3        1.0  0.7424648895377776  0.25753509587342516  0.2575352248784134  1.0000
  F   F4        1.0  0.25753510750439773  0.7424649235673406  0.7424649837433072  1.0000
  F   F5        1.0  0.257535146723362  0.7424649360347173  0.2575351115909882  1.0000
  F   F6        1.0  0.7424649350164437  0.2575351112207614  0.7424649802129165  1.0000
