data_image0
_chemical_formula_structural       Se2ReF6
_chemical_formula_sum              "Se2 Re1 F6"
_cell_length_a       5.360873544499928
_cell_length_b       5.360873965263263
_cell_length_c       5.360873599473612
_cell_angle_alpha    60.00000045464991
_cell_angle_beta     59.99999991833344
_cell_angle_gamma    60.00000045199562

_space_group_name_H-M_alt    "P 1"
_space_group_IT_number       1

loop_
  _space_group_symop_operation_xyz
  'x, y, z'

loop_
  _atom_site_type_symbol
  _atom_site_label
  _atom_site_symmetry_multiplicity
  _atom_site_fract_x
  _atom_site_fract_y
  _atom_site_fract_z
  _atom_site_occupancy
  Se  Se1       1.0  0.2500000065385659  0.25000002102760666  0.2500000169236686  1.0000
  Se  Se2       1.0  0.7500000024290024  0.7499999854064476  0.7500000179917332  1.0000
  Re  Re1       1.0  1.1684313256639048e-08  0.9999999520234157  2.3742239026392156e-08  1.0000
  F   F1        1.0  0.2522779967034051  0.25227803902793905  0.7477219886138015  1.0000
  F   F2        1.0  0.7477219690546839  0.7477219742599145  0.2522780234413526  1.0000
  F   F3        1.0  0.7477220059340709  0.25227801553196577  0.2522780041366216  1.0000
  F   F4        1.0  0.25227801075706924  0.747722000040487  0.7477219495984578  1.0000
  F   F5        1.0  0.2522780324141545  0.7477220152154852  0.2522779908028487  1.0000
  F   F6        1.0  0.747721966784141  0.25227801406456296  0.7477219778824282  1.0000
