data_image0
_chemical_formula_structural       Se2SbF6
_chemical_formula_sum              "Se2 Sb1 F6"
_cell_length_a       5.358957577090537
_cell_length_b       5.358957575767901
_cell_length_c       5.358957660393024
_cell_angle_alpha    59.99999969684696
_cell_angle_beta     59.99999941511785
_cell_angle_gamma    60.00000013965632

_space_group_name_H-M_alt    "P 1"
_space_group_IT_number       1

loop_
  _space_group_symop_operation_xyz
  'x, y, z'

loop_
  _atom_site_type_symbol
  _atom_site_label
  _atom_site_symmetry_multiplicity
  _atom_site_fract_x
  _atom_site_fract_y
  _atom_site_fract_z
  _atom_site_occupancy
  Se  Se1       1.0  0.25000006607024633  0.2499999583523641  0.25000003654958375  1.0000
  Se  Se2       1.0  0.7500000259831341  0.7500000556049752  0.7500000252491279  1.0000
  Sb  Sb1       1.0  0.9999999717273454  1.371249721252102e-08  0.999999947566974  1.0000
  F   F1        1.0  0.26107547670741227  0.26107552115658983  0.7389245068858581  1.0000
  F   F2        1.0  0.738924503823811  0.7389244653757537  0.26107553854884213  1.0000
  F   F3        1.0  0.7389244988060223  0.26107549291639065  0.2610754946855546  1.0000
  F   F4        1.0  0.2610755247111434  0.7389244616201254  0.7389244836749487  1.0000
  F   F5        1.0  0.26107545651664  0.7389244991570696  0.26107550256060413  1.0000
  F   F6        1.0  0.7389244594591047  0.2610755582231771  0.7389244594883995  1.0000
