data_image0
_chemical_formula_structural       Se2SbI6
_chemical_formula_sum              "Se2 Sb1 I6"
_cell_length_a       7.7806695737329115
_cell_length_b       7.78066929193404
_cell_length_c       7.780669236519459
_cell_angle_alpha    60.000000947495494
_cell_angle_beta     59.9999995227341
_cell_angle_gamma    59.99999787591848

_space_group_name_H-M_alt    "P 1"
_space_group_IT_number       1

loop_
  _space_group_symop_operation_xyz
  'x, y, z'

loop_
  _atom_site_type_symbol
  _atom_site_label
  _atom_site_symmetry_multiplicity
  _atom_site_fract_x
  _atom_site_fract_y
  _atom_site_fract_z
  _atom_site_occupancy
  Se  Se1       1.0  0.2499999883052914  0.25000000254419047  0.25000002438251057  1.0000
  Se  Se2       1.0  0.7500000123158745  0.75000001235483  0.7500000008178881  1.0000
  Sb  Sb1       1.0  5.293247199904966e-08  0.9999999480551356  4.063376278845056e-08  1.0000
  I   I1        1.0  0.2695112506420709  0.26951125307485096  0.730488739720448  1.0000
  I   I2        1.0  0.7304887512085355  0.7304887492314743  0.26951122818499024  1.0000
  I   I3        1.0  0.7304887544272282  0.2695112300763605  0.26951124735939525  1.0000
  I   I4        1.0  0.2695112224489266  0.7304887848226603  0.7304887807168537  1.0000
  I   I5        1.0  0.26951125140927484  0.7304887557365345  0.2695112143301429  1.0000
  I   I6        1.0  0.7304887138490009  0.2695112717551796  0.7304887245773816  1.0000
