data_image0
_chemical_formula_structural       Se2SbF6
_chemical_formula_sum              "Se2 Sb1 F6"
_cell_length_a       5.357847949703412
_cell_length_b       5.357847838868258
_cell_length_c       5.357848000965896
_cell_angle_alpha    60.00000033809076
_cell_angle_beta     59.99999998337829
_cell_angle_gamma    60.00000097827232

_space_group_name_H-M_alt    "P 1"
_space_group_IT_number       1

loop_
  _space_group_symop_operation_xyz
  'x, y, z'

loop_
  _atom_site_type_symbol
  _atom_site_label
  _atom_site_symmetry_multiplicity
  _atom_site_fract_x
  _atom_site_fract_y
  _atom_site_fract_z
  _atom_site_occupancy
  Se  Se1       1.0  0.2500000129837359  0.2500000339413411  0.24999999634136177  1.0000
  Se  Se2       1.0  0.7500000344467185  0.7499999989589908  0.750000005380425  1.0000
  Sb  Sb1       1.0  0.9999999653867504  6.85766844734994e-09  2.134347456000037e-08  1.0000
  F   F1        1.0  0.26110250084239894  0.2611024674494659  0.7388975189075441  1.0000
  F   F2        1.0  0.7388975197475995  0.7388975037318462  0.26110249349840203  1.0000
  F   F3        1.0  0.7388975068842297  0.26110248177496703  0.26110248046858137  1.0000
  F   F4        1.0  0.26110251612239044  0.7388974756910068  0.738897498391882  1.0000
  F   F5        1.0  0.26110247137326836  0.7388975215559015  0.26110250821530956  1.0000
  F   F6        1.0  0.7388974718476705  0.26110251363031795  0.7388974810099772  1.0000
