data_image0
_chemical_formula_structural       Se2SbBr6
_chemical_formula_sum              "Se2 Sb1 Br6"
_cell_length_a       7.334184933521162
_cell_length_b       7.3341846976159175
_cell_length_c       7.3341847732940595
_cell_angle_alpha    59.99999922164539
_cell_angle_beta     59.9999997068277
_cell_angle_gamma    59.999999556788374

_space_group_name_H-M_alt    "P 1"
_space_group_IT_number       1

loop_
  _space_group_symop_operation_xyz
  'x, y, z'

loop_
  _atom_site_type_symbol
  _atom_site_label
  _atom_site_symmetry_multiplicity
  _atom_site_fract_x
  _atom_site_fract_y
  _atom_site_fract_z
  _atom_site_occupancy
  Se  Se1       1.0  0.24999989870126366  0.25000005325733393  0.2499999344702568  1.0000
  Se  Se2       1.0  0.749999990649325  0.7499999326638634  0.7500000314798578  1.0000
  Sb  Sb1       1.0  1.0170081735520758e-07  0.9999999782911343  0.9999999654579357  1.0000
  Br  Br1       1.0  0.25290061756416665  0.25290059104110074  0.7470993951983164  1.0000
  Br  Br2       1.0  0.7470994482948302  0.7470994132491384  0.25290054421393093  1.0000
  Br  Br3       1.0  0.7470994014036997  0.2529005959381756  0.2529006061671252  1.0000
  Br  Br4       1.0  0.25290053209306623  0.7470994417503184  0.7470994549914479  1.0000
  Br  Br5       1.0  0.2529006036827038  0.747099383854655  0.25290062686604875  1.0000
  Br  Br6       1.0  0.7470994115250843  0.25290060707628137  0.747099446812309  1.0000
