data_image0
_chemical_formula_structural       Se2SbBr6
_chemical_formula_sum              "Se2 Sb1 Br6"
_cell_length_a       7.334160967342834
_cell_length_b       7.334160761849078
_cell_length_c       7.334161048005171
_cell_angle_alpha    59.99999944040505
_cell_angle_beta     59.999998349442286
_cell_angle_gamma    60.0000001923067

_space_group_name_H-M_alt    "P 1"
_space_group_IT_number       1

loop_
  _space_group_symop_operation_xyz
  'x, y, z'

loop_
  _atom_site_type_symbol
  _atom_site_label
  _atom_site_symmetry_multiplicity
  _atom_site_fract_x
  _atom_site_fract_y
  _atom_site_fract_z
  _atom_site_occupancy
  Se  Se1       1.0  0.2499999495022145  0.24999994793059835  0.24999996515206996  1.0000
  Se  Se2       1.0  0.750000195336039  0.7500000124535439  0.7499998681391723  1.0000
  Sb  Sb1       1.0  0.9999999701816384  0.9999999949902451  3.241236565198249e-08  1.0000
  Br  Br1       1.0  0.2529022024583122  0.2529022891271272  0.7470977656885613  1.0000
  Br  Br2       1.0  0.7470977429368455  0.7470977547529261  0.2529022973750664  1.0000
  Br  Br3       1.0  0.747097769561767  0.2529022542519994  0.25290223155638714  1.0000
  Br  Br4       1.0  0.2529022456015137  0.7470977361906705  0.747097751077299  1.0000
  Br  Br5       1.0  0.25290220681479036  0.747097791479026  0.25290229003017034  1.0000
  Br  Br6       1.0  0.7470977112750763  0.2529022256823351  0.7470977973184841  1.0000
