data_image0
_chemical_formula_structural       Se2SnBr6
_chemical_formula_sum              "Se2 Sn1 Br6"
_cell_length_a       7.276920936916047
_cell_length_b       7.276921109702031
_cell_length_c       7.276920899622451
_cell_angle_alpha    59.99999867247818
_cell_angle_beta     59.99999935926242
_cell_angle_gamma    59.999998947964606

_space_group_name_H-M_alt    "P 1"
_space_group_IT_number       1

loop_
  _space_group_symop_operation_xyz
  'x, y, z'

loop_
  _atom_site_type_symbol
  _atom_site_label
  _atom_site_symmetry_multiplicity
  _atom_site_fract_x
  _atom_site_fract_y
  _atom_site_fract_z
  _atom_site_occupancy
  Se  Se1       1.0  0.2499999907193012  0.24999984515335036  0.2500000638783332  1.0000
  Se  Se2       1.0  0.7499999629806049  0.750000072354172  0.7500001256624735  1.0000
  Sn  Sn1       1.0  2.417048089972056e-08  8.415268298881449e-09  0.9999999809587099  1.0000
  Br  Br1       1.0  0.251959486526206  0.2519594972889044  0.7480404843904118  1.0000
  Br  Br2       1.0  0.7480405207865303  0.7480405212018423  0.25195946294745375  1.0000
  Br  Br3       1.0  0.7480405295994814  0.2519594957898459  0.2519594617202207  1.0000
  Br  Br4       1.0  0.25195949516803584  0.748040522700901  0.7480404549029326  1.0000
  Br  Br5       1.0  0.25195949861962125  0.7480405340181439  0.2519594718152786  1.0000
  Br  Br6       1.0  0.7480404982262857  0.2519595063523004  0.7480404876808513  1.0000
