data_image0
_chemical_formula_structural       Se2SnCl6
_chemical_formula_sum              "Se2 Sn1 Cl6"
_cell_length_a       6.918195193496944
_cell_length_b       6.918194997758629
_cell_length_c       6.91819558376041
_cell_angle_alpha    59.999998809193386
_cell_angle_beta     59.999998202595364
_cell_angle_gamma    59.99999409069148

_space_group_name_H-M_alt    "P 1"
_space_group_IT_number       1

loop_
  _space_group_symop_operation_xyz
  'x, y, z'

loop_
  _atom_site_type_symbol
  _atom_site_label
  _atom_site_symmetry_multiplicity
  _atom_site_fract_x
  _atom_site_fract_y
  _atom_site_fract_z
  _atom_site_occupancy
  Se  Se1       1.0  0.2500003091740997  0.24999983407238127  0.24999994139710055  1.0000
  Se  Se2       1.0  0.7500000355691893  0.7499999748937929  0.7500000352750011  1.0000
  Sn  Sn1       1.0  0.9999999436215973  3.894713910570246e-08  2.8952122852353217e-08  1.0000
  Cl  Cl1       1.0  0.24956268832804696  0.2495628048941705  0.7504372834774704  1.0000
  Cl  Cl2       1.0  0.7504371755644885  0.7504372749316541  0.24956275771720454  1.0000
  Cl  Cl3       1.0  0.7504370780994227  0.2495628400724829  0.24956273120424025  1.0000
  Cl  Cl4       1.0  0.24956282615471978  0.75043722382042  0.7504372732032105  1.0000
  Cl  Cl5       1.0  0.24956263555417532  0.750437283844617  0.24956284194867404  1.0000
  Cl  Cl6       1.0  0.7504373125183499  0.24956272870887597  0.750437096837036  1.0000
