data_image0
_chemical_formula_structural       Se2SCl6
_chemical_formula_sum              "Se2 S1 Cl6"
_cell_length_a       6.59922361545666
_cell_length_b       6.599223706030623
_cell_length_c       6.5992237300844865
_cell_angle_alpha    59.9999987930944
_cell_angle_beta     60.00000098440705
_cell_angle_gamma    59.99999807642518

_space_group_name_H-M_alt    "P 1"
_space_group_IT_number       1

loop_
  _space_group_symop_operation_xyz
  'x, y, z'

loop_
  _atom_site_type_symbol
  _atom_site_label
  _atom_site_symmetry_multiplicity
  _atom_site_fract_x
  _atom_site_fract_y
  _atom_site_fract_z
  _atom_site_occupancy
  Se  Se1       1.0  0.25000009669450346  0.2499999597515915  0.2499999703906033  1.0000
  Se  Se2       1.0  0.7499999427106258  0.7500000499968805  0.7499999525119718  1.0000
  S   S1        1.0  1.1541705343540328e-08  0.9999999758733986  2.4476405293194695e-08  1.0000
  Cl  Cl1       1.0  0.24624944352691866  0.24624937967725088  0.7537505953260799  1.0000
  Cl  Cl2       1.0  0.7537505761548714  0.753750563259095  0.24624943448807735  1.0000
  Cl  Cl3       1.0  0.7537505598862395  0.24624942456133117  0.24624935719804839  1.0000
  Cl  Cl4       1.0  0.2462494140168688  0.7537506557110515  0.7537506101688025  1.0000
  Cl  Cl5       1.0  0.2462493449041833  0.7537506816536437  0.24624942449335058  1.0000
  Cl  Cl6       1.0  0.7537506086751659  0.24624930211233526  0.7537506331105067  1.0000
