data_image0
_chemical_formula_structural       Se2SiBr6
_chemical_formula_sum              "Se2 Si1 Br6"
_cell_length_a       7.139204925078212
_cell_length_b       7.139205013573365
_cell_length_c       7.139204744004186
_cell_angle_alpha    60.000002542194885
_cell_angle_beta     60.00000350279923
_cell_angle_gamma    59.99999850817693

_space_group_name_H-M_alt    "P 1"
_space_group_IT_number       1

loop_
  _space_group_symop_operation_xyz
  'x, y, z'

loop_
  _atom_site_type_symbol
  _atom_site_label
  _atom_site_symmetry_multiplicity
  _atom_site_fract_x
  _atom_site_fract_y
  _atom_site_fract_z
  _atom_site_occupancy
  Se  Se1       1.0  0.24999997133941948  0.24999981050614092  0.25000015829438016  1.0000
  Se  Se2       1.0  0.750000003359439  0.7499999204416006  0.7499998271676114  1.0000
  Si  Si1       1.0  0.9999999875989074  5.66121581961316e-08  0.999999903656507  1.0000
  Br  Br1       1.0  0.2387854344450716  0.2387854851359332  0.7612145776051292  1.0000
  Br  Br2       1.0  0.7612145486293797  0.761214570045078  0.23878550348637062  1.0000
  Br  Br3       1.0  0.7612146222437409  0.23878545260812242  0.23878540789893443  1.0000
  Br  Br4       1.0  0.23878544132548055  0.7612145939952857  0.7612146134218073  1.0000
  Br  Br5       1.0  0.23878538867903226  0.7612146516386857  0.2387854211550464  1.0000
  Br  Br6       1.0  0.7612145996877  0.238785465301043  0.7612145969959138  1.0000
