data_image0
_chemical_formula_structural       Se2SF6
_chemical_formula_sum              "Se2 S1 F6"
_cell_length_a       5.417648732192014
_cell_length_b       5.4176488878116995
_cell_length_c       5.417648572291665
_cell_angle_alpha    59.99999821870616
_cell_angle_beta     59.999999226406146
_cell_angle_gamma    59.99999856460965

_space_group_name_H-M_alt    "P 1"
_space_group_IT_number       1

loop_
  _space_group_symop_operation_xyz
  'x, y, z'

loop_
  _atom_site_type_symbol
  _atom_site_label
  _atom_site_symmetry_multiplicity
  _atom_site_fract_x
  _atom_site_fract_y
  _atom_site_fract_z
  _atom_site_occupancy
  Se  Se1       1.0  0.2500000181572883  0.2499997814180968  0.2500001589072699  1.0000
  Se  Se2       1.0  0.7499999995880118  0.7499997263054208  0.7500002799134147  1.0000
  S   S1        1.0  3.750016716959347e-08  1.9441655648276674e-07  0.999999708688804  1.0000
  F   F1        1.0  0.23563631157198142  0.23563637986315417  0.7643635869197288  1.0000
  F   F2        1.0  0.7643634945137858  0.7643636093804381  0.23563640502722186  1.0000
  F   F3        1.0  0.7643635400105664  0.23563657152165318  0.2356363400393799  1.0000
  F   F4        1.0  0.23563634385334695  0.7643637726451725  0.7643635389227477  1.0000
  F   F5        1.0  0.23563650889970347  0.7643636059989579  0.2356363711406949  1.0000
  F   F6        1.0  0.7643637577131168  0.2356363380314706  0.7643636346476156  1.0000
