data_image0
_chemical_formula_structural       Se2SnF6
_chemical_formula_sum              "Se2 Sn1 F6"
_cell_length_a       5.314602904695516
_cell_length_b       5.314603093852922
_cell_length_c       5.314602758288236
_cell_angle_alpha    60.000001737768095
_cell_angle_beta     60.00000227076271
_cell_angle_gamma    60.00000088572497

_space_group_name_H-M_alt    "P 1"
_space_group_IT_number       1

loop_
  _space_group_symop_operation_xyz
  'x, y, z'

loop_
  _atom_site_type_symbol
  _atom_site_label
  _atom_site_symmetry_multiplicity
  _atom_site_fract_x
  _atom_site_fract_y
  _atom_site_fract_z
  _atom_site_occupancy
  Se  Se1       1.0  0.25000009100374715  0.2499999528865482  0.25000002904330954  1.0000
  Se  Se2       1.0  0.7500000268152385  0.7499999324033219  0.7499999814320549  1.0000
  Sn  Sn1       1.0  0.9999999789094284  4.608979900723001e-09  0.9999999950695384  1.0000
  F   F1        1.0  0.265832084452944  0.2658321155532494  0.7341678985820526  1.0000
  F   F2        1.0  0.7341678864323671  0.7341679172239678  0.2658321191429064  1.0000
  F   F3        1.0  0.7341678783018326  0.2658321287737575  0.26583209934031393  1.0000
  F   F4        1.0  0.26583209168351907  0.7341679132214189  0.7341679010543879  1.0000
  F   F5        1.0  0.2658320458772869  0.7341679336216836  0.26583208825878174  1.0000
  F   F6        1.0  0.7341679065947173  0.26583211528696254  0.7341678854485196  1.0000
