data_image0
_chemical_formula_structural       Se2SbCl6
_chemical_formula_sum              "Se2 Sb1 Cl6"
_cell_length_a       6.886309949455547
_cell_length_b       6.886309660614609
_cell_length_c       6.886309837681575
_cell_angle_alpha    59.99999956153098
_cell_angle_beta     59.999998072428454
_cell_angle_gamma    59.9999994343508

_space_group_name_H-M_alt    "P 1"
_space_group_IT_number       1

loop_
  _space_group_symop_operation_xyz
  'x, y, z'

loop_
  _atom_site_type_symbol
  _atom_site_label
  _atom_site_symmetry_multiplicity
  _atom_site_fract_x
  _atom_site_fract_y
  _atom_site_fract_z
  _atom_site_occupancy
  Se  Se1       1.0  0.2499999763260721  0.24999996693484478  0.24999976036764535  1.0000
  Se  Se2       1.0  0.750000038054843  0.7499999257038457  0.7500000403920473  1.0000
  Sb  Sb1       1.0  0.9999999654641797  2.3120776988719626e-08  0.9999999810208609  1.0000
  Cl  Cl1       1.0  0.24919850125326015  0.24919859531989377  0.7508017182859087  1.0000
  Cl  Cl2       1.0  0.7508012987986261  0.750801457385725  0.24919869337177572  1.0000
  Cl  Cl3       1.0  0.7508013063871174  0.24919868987604818  0.2491984841695526  1.0000
  Cl  Cl4       1.0  0.24919852469291653  0.7508014357489422  0.7508015792744336  1.0000
  Cl  Cl5       1.0  0.24919869239985054  0.7508013824927368  0.24919841655142982  1.0000
  Cl  Cl6       1.0  0.7508016934357129  0.24919852259560807  0.7508013360196041  1.0000
