data_image0
_chemical_formula_structural       Se2SiI6
_chemical_formula_sum              "Se2 Si1 I6"
_cell_length_a       7.523289439573333
_cell_length_b       7.523289434401078
_cell_length_c       7.523289397371093
_cell_angle_alpha    59.99999919524669
_cell_angle_beta     59.9999993949029
_cell_angle_gamma    59.99999936966827

_space_group_name_H-M_alt    "P 1"
_space_group_IT_number       1

loop_
  _space_group_symop_operation_xyz
  'x, y, z'

loop_
  _atom_site_type_symbol
  _atom_site_label
  _atom_site_symmetry_multiplicity
  _atom_site_fract_x
  _atom_site_fract_y
  _atom_site_fract_z
  _atom_site_occupancy
  Se  Se1       1.0  0.25000002161029294  0.24999999218365418  0.24999998065134357  1.0000
  Se  Se2       1.0  0.7499999770819666  0.7499999635274582  0.7500000109491208  1.0000
  Si  Si1       1.0  2.528620741352427e-08  0.999999988604434  0.9999999917254735  1.0000
  I   I1        1.0  0.25259336581206054  0.25259337483496447  0.7474066532536193  1.0000
  I   I2        1.0  0.7474066185851961  0.7474066329701639  0.25259336862795345  1.0000
  I   I3        1.0  0.747406641802151  0.2525933647647466  0.25259337621395417  1.0000
  I   I4        1.0  0.25259339425281213  0.7474066169933736  0.7474066302038573  1.0000
  I   I5        1.0  0.2525933596543143  0.7474066681526529  0.25259335828631096  1.0000
  I   I6        1.0  0.7474065970839702  0.252593395002368  0.7474066324701257  1.0000
