data_image0
_chemical_formula_structural       Se2SBr6
_chemical_formula_sum              "Se2 S1 Br6"
_cell_length_a       7.1784522620234785
_cell_length_b       7.178452478723787
_cell_length_c       7.17845235135973
_cell_angle_alpha    60.00000115188777
_cell_angle_beta     60.00000123739595
_cell_angle_gamma    60.000001112948965

_space_group_name_H-M_alt    "P 1"
_space_group_IT_number       1

loop_
  _space_group_symop_operation_xyz
  'x, y, z'

loop_
  _atom_site_type_symbol
  _atom_site_label
  _atom_site_symmetry_multiplicity
  _atom_site_fract_x
  _atom_site_fract_y
  _atom_site_fract_z
  _atom_site_occupancy
  Se  Se1       1.0  0.2500000386487532  0.2499999999922177  0.2500000077534197  1.0000
  Se  Se2       1.0  0.7500000056383204  0.7499999641477026  0.7499999653812566  1.0000
  S   S1        1.0  0.9999999987649972  8.530702526095436e-09  0.999999999138266  1.0000
  Br  Br1       1.0  0.2539617680904596  0.2539617794590158  0.7460382316783508  1.0000
  Br  Br2       1.0  0.7460381883416194  0.7460382648695085  0.25396177593679475  1.0000
  Br  Br3       1.0  0.7460382492022568  0.2539617511780666  0.253961736910803  1.0000
  Br  Br4       1.0  0.253961757973511  0.7460382470846642  0.7460382516487001  1.0000
  Br  Br5       1.0  0.2539617473717307  0.7460382350564606  0.2539617418552236  1.0000
  Br  Br6       1.0  0.7460382466595332  0.2539617495571459  0.7460382851761361  1.0000
