data_image0
_chemical_formula_structural       Se2SbCl6
_chemical_formula_sum              "Se2 Sb1 Cl6"
_cell_length_a       6.887206796598984
_cell_length_b       6.887207123087997
_cell_length_c       6.8872070738537605
_cell_angle_alpha    60.00000123648765
_cell_angle_beta     59.999998578514656
_cell_angle_gamma    59.99999834634187

_space_group_name_H-M_alt    "P 1"
_space_group_IT_number       1

loop_
  _space_group_symop_operation_xyz
  'x, y, z'

loop_
  _atom_site_type_symbol
  _atom_site_label
  _atom_site_symmetry_multiplicity
  _atom_site_fract_x
  _atom_site_fract_y
  _atom_site_fract_z
  _atom_site_occupancy
  Se  Se1       1.0  0.2500000644592975  0.2500001307554626  0.24999986535541824  1.0000
  Se  Se2       1.0  0.7500000693368405  0.7499998338834706  0.7500001913725266  1.0000
  Sb  Sb1       1.0  0.999999986587299  3.608262302311398e-16  8.984807928685357e-10  1.0000
  Cl  Cl1       1.0  0.24915666853040835  0.24915664408618368  0.7508433317783525  1.0000
  Cl  Cl2       1.0  0.750843335424664  0.7508432423080112  0.24915670557526662  1.0000
  Cl  Cl3       1.0  0.7508432419406291  0.24915672470892297  0.24915668702516042  1.0000
  Cl  Cl4       1.0  0.24915671860612548  0.7508433572971254  0.7508432321196382  1.0000
  Cl  Cl5       1.0  0.24915671301909478  0.7508433603310027  0.24915672347302478  1.0000
  Cl  Cl6       1.0  0.7508432121333647  0.24915670211386193  0.7508432783242737  1.0000
