data_image0
_chemical_formula_structural       Se2SbI6
_chemical_formula_sum              "Se2 Sb1 I6"
_cell_length_a       7.779796566773712
_cell_length_b       7.779796306537037
_cell_length_c       7.7797966669222935
_cell_angle_alpha    59.999998752823934
_cell_angle_beta     59.99999884961548
_cell_angle_gamma    59.99999979636815

_space_group_name_H-M_alt    "P 1"
_space_group_IT_number       1

loop_
  _space_group_symop_operation_xyz
  'x, y, z'

loop_
  _atom_site_type_symbol
  _atom_site_label
  _atom_site_symmetry_multiplicity
  _atom_site_fract_x
  _atom_site_fract_y
  _atom_site_fract_z
  _atom_site_occupancy
  Se  Se1       1.0  0.25000000768627295  0.2500000170942938  0.250000026181496  1.0000
  Se  Se2       1.0  0.7499999673192199  0.7499999646983908  0.750000010885424  1.0000
  Sb  Sb1       1.0  4.577191462286027e-08  0.9999999606434155  1.253303983782562e-07  1.0000
  I   I1        1.0  0.26946094018237293  0.2694609484397672  0.730539039765213  1.0000
  I   I2        1.0  0.7305390622286302  0.7305390490955518  0.269460932024693  1.0000
  I   I3        1.0  0.7305390594592905  0.2694609547266008  0.2694609196750762  1.0000
  I   I4        1.0  0.26946094214141014  0.7305390853138308  0.7305389978475281  1.0000
  I   I5        1.0  0.26946093831492024  0.7305390668181844  0.2694609161515675  1.0000
  I   I6        1.0  0.7305390379792885  0.2694609511825588  0.7305390314710303  1.0000
