data_image0
_chemical_formula_structural       Se2SI6
_chemical_formula_sum              "Se2 S1 I6"
_cell_length_a       7.487309791077807
_cell_length_b       7.487309805358563
_cell_length_c       7.48730975033801
_cell_angle_alpha    59.999999836952966
_cell_angle_beta     60.00000055411678
_cell_angle_gamma    59.99999998096553

_space_group_name_H-M_alt    "P 1"
_space_group_IT_number       1

loop_
  _space_group_symop_operation_xyz
  'x, y, z'

loop_
  _atom_site_type_symbol
  _atom_site_label
  _atom_site_symmetry_multiplicity
  _atom_site_fract_x
  _atom_site_fract_y
  _atom_site_fract_z
  _atom_site_occupancy
  Se  Se1       1.0  0.24999999005677345  0.25000001477387906  0.24999996878636913  1.0000
  Se  Se2       1.0  0.7500000199113003  0.7499999968845701  0.7500000000342687  1.0000
  S   S1        1.0  0.9999999912759419  2.617217455638054e-08  8.63865330427905e-09  1.0000
  I   I1        1.0  0.2698448696739051  0.2698448930640483  0.7301551065002607  1.0000
  I   I2        1.0  0.7301551063815958  0.7301550907864651  0.26984491722130893  1.0000
  I   I3        1.0  0.7301551213535111  0.2698448794067633  0.2698448987167318  1.0000
  I   I4        1.0  0.26984487084039555  0.7301551208013595  0.7301551060856439  1.0000
  I   I5        1.0  0.2698449031233492  0.7301550973992171  0.26984490012801005  1.0000
  I   I6        1.0  0.7301551316296889  0.2698448815440136  0.730155098034026  1.0000
