data_image0
_chemical_formula_structural       Se2TaCl6
_chemical_formula_sum              "Se2 Ta1 Cl6"
_cell_length_a       8.696876393614472
_cell_length_b       8.696877088881118
_cell_length_c       8.69687657266648
_cell_angle_alpha    59.99998997408852
_cell_angle_beta     59.99998788246781
_cell_angle_gamma    59.99997676815779

_space_group_name_H-M_alt    "P 1"
_space_group_IT_number       1

loop_
  _space_group_symop_operation_xyz
  'x, y, z'

loop_
  _atom_site_type_symbol
  _atom_site_label
  _atom_site_symmetry_multiplicity
  _atom_site_fract_x
  _atom_site_fract_y
  _atom_site_fract_z
  _atom_site_occupancy
  Se  Se1       1.0  0.2499990858581577  0.25000005643945744  0.2499999043803001  1.0000
  Se  Se2       1.0  0.7500014537238875  0.7499989328664787  0.7499997993713761  1.0000
  Ta  Ta1       1.0  0.9999999479106202  0.9999999929587161  5.1412260827077064e-08  1.0000
  Cl  Cl1       1.0  0.19146359565210128  0.1914647990086131  0.8085359650883368  1.0000
  Cl  Cl2       1.0  0.808536416725793  0.8085353098628449  0.19146394841135997  1.0000
  Cl  Cl3       1.0  0.808535223683604  0.1914644600044962  0.19146435005456247  1.0000
  Cl  Cl4       1.0  0.19146463479371142  0.8085359910737853  0.8085355693279086  1.0000
  Cl  Cl5       1.0  0.19146426170168795  0.8085359694134128  0.19146468547633919  1.0000
  Cl  Cl6       1.0  0.8085353427785719  0.19146450278875693  0.8085357688838026  1.0000
