data_image0
_chemical_formula_structural       Se2TiCl6
_chemical_formula_sum              "Se2 Ti1 Cl6"
_cell_length_a       6.826926742503506
_cell_length_b       6.826926594204005
_cell_length_c       6.826926568648908
_cell_angle_alpha    60.00000052121838
_cell_angle_beta     59.99999944561956
_cell_angle_gamma    60.0000003799028

_space_group_name_H-M_alt    "P 1"
_space_group_IT_number       1

loop_
  _space_group_symop_operation_xyz
  'x, y, z'

loop_
  _atom_site_type_symbol
  _atom_site_label
  _atom_site_symmetry_multiplicity
  _atom_site_fract_x
  _atom_site_fract_y
  _atom_site_fract_z
  _atom_site_occupancy
  Se  Se1       1.0  0.24999996879561176  0.2499998407390057  0.24999991693645587  1.0000
  Se  Se2       1.0  0.7500000929790267  0.7499999671269312  0.7500002421564931  1.0000
  Ti  Ti1       1.0  0.9999999838716785  1.7939916051551984e-08  6.354487418765206e-08  1.0000
  Cl  Cl1       1.0  0.24232830230651137  0.24232829817427104  0.7576716659018868  1.0000
  Cl  Cl2       1.0  0.7576716451832772  0.7576717967303116  0.24232821053257642  1.0000
  Cl  Cl3       1.0  0.7576717607614454  0.24232832231105578  0.24232826526559303  1.0000
  Cl  Cl4       1.0  0.24232834549935256  0.7576716362501709  0.7576716922366844  1.0000
  Cl  Cl5       1.0  0.24232828484588426  0.7576717029682051  0.24232831109388053  1.0000
  Cl  Cl6       1.0  0.757671608604374  0.24232841705225958  0.7576716515770187  1.0000
