data_image0
_chemical_formula_structural       Se2TaF6
_chemical_formula_sum              "Se2 Ta1 F6"
_cell_length_a       5.331490033297169
_cell_length_b       5.331490276767545
_cell_length_c       5.331490261233672
_cell_angle_alpha    60.00000006783301
_cell_angle_beta     60.000000036756035
_cell_angle_gamma    60.000001179435024

_space_group_name_H-M_alt    "P 1"
_space_group_IT_number       1

loop_
  _space_group_symop_operation_xyz
  'x, y, z'

loop_
  _atom_site_type_symbol
  _atom_site_label
  _atom_site_symmetry_multiplicity
  _atom_site_fract_x
  _atom_site_fract_y
  _atom_site_fract_z
  _atom_site_occupancy
  Se  Se1       1.0  0.2499999882013283  0.24999996048007309  0.2500000113503305  1.0000
  Se  Se2       1.0  0.7500000003266827  0.7500000146772663  0.7499999683276013  1.0000
  Ta  Ta1       1.0  0.9999999435800478  0.9999999678393334  8.652993318907429e-09  1.0000
  F   F1        1.0  0.2553149095737251  0.2553149074471941  0.7446850958784934  1.0000
  F   F2        1.0  0.7446851659132834  0.7446851641921448  0.25531484084579337  1.0000
  F   F3        1.0  0.7446850891810587  0.25531492478183565  0.25531491922693555  1.0000
  F   F4        1.0  0.25531486834615225  0.7446851238855982  0.7446850879632012  1.0000
  F   F5        1.0  0.2553149150684438  0.7446850532170951  0.2553149797335037  1.0000
  F   F6        1.0  0.744685141519391  0.2553148736992442  0.7446850913200187  1.0000
