data_image0
_chemical_formula_structural       Se2TeCl6
_chemical_formula_sum              "Se2 Te1 Cl6"
_cell_length_a       7.10347413866131
_cell_length_b       7.103474017536678
_cell_length_c       7.103474094908727
_cell_angle_alpha    60.00000100791966
_cell_angle_beta     59.999999843523526
_cell_angle_gamma    59.9999986110062

_space_group_name_H-M_alt    "P 1"
_space_group_IT_number       1

loop_
  _space_group_symop_operation_xyz
  'x, y, z'

loop_
  _atom_site_type_symbol
  _atom_site_label
  _atom_site_symmetry_multiplicity
  _atom_site_fract_x
  _atom_site_fract_y
  _atom_site_fract_z
  _atom_site_occupancy
  Se  Se1       1.0  0.2500000015042732  0.2500000561712033  0.24999992978450533  1.0000
  Se  Se2       1.0  0.7500002929271496  0.7499999616157034  0.7499995247611636  1.0000
  Te  Te1       1.0  0.9999999342541861  9.482820393270255e-08  0.999999964342378  1.0000
  Cl  Cl1       1.0  0.24498365763096677  0.24498368551165156  0.7550163859144158  1.0000
  Cl  Cl2       1.0  0.7550162807416783  0.7550162788266482  0.24498388857688438  1.0000
  Cl  Cl3       1.0  0.755016092833513  0.24498367376987884  0.24498384053376285  1.0000
  Cl  Cl4       1.0  0.24498360407125763  0.7550163371204509  0.7550164455419867  1.0000
  Cl  Cl5       1.0  0.24498367093914847  0.7550163371360373  0.2449837461689797  1.0000
  Cl  Cl6       1.0  0.7550164772610393  0.24498356340873714  0.7550162610341722  1.0000
