data_image0
_chemical_formula_structural       Se2TaBr6
_chemical_formula_sum              "Se2 Ta1 Br6"
_cell_length_a       9.798155081436285
_cell_length_b       9.798153144913293
_cell_length_c       9.798151584957647
_cell_angle_alpha    60.00000741012366
_cell_angle_beta     60.000017750023076
_cell_angle_gamma    59.99999162747264

_space_group_name_H-M_alt    "P 1"
_space_group_IT_number       1

loop_
  _space_group_symop_operation_xyz
  'x, y, z'

loop_
  _atom_site_type_symbol
  _atom_site_label
  _atom_site_symmetry_multiplicity
  _atom_site_fract_x
  _atom_site_fract_y
  _atom_site_fract_z
  _atom_site_occupancy
  Se  Se1       1.0  0.24999981705398497  0.2499998487570741  0.25000067201299175  1.0000
  Se  Se2       1.0  0.7500003522594002  0.7499998375153305  0.7500003196607293  1.0000
  Ta  Ta1       1.0  3.1747671099972075e-08  3.749921332177615e-09  0.9999999026443536  1.0000
  Br  Br1       1.0  0.18217983024260018  0.182180239744179  0.8178197092610323  1.0000
  Br  Br2       1.0  0.8178199143878585  0.8178200665159978  0.1821799447304519  1.0000
  Br  Br3       1.0  0.8178198060758765  0.18218033561800934  0.18217976695358903  1.0000
  Br  Br4       1.0  0.18218026329646328  0.8178197918956653  0.8178198854822638  1.0000
  Br  Br5       1.0  0.1821799311221387  0.817819906978277  0.18218013624497922  1.0000
  Br  Br6       1.0  0.8178201113167701  0.18217992304129443  0.8178196059419875  1.0000
