data_image0
_chemical_formula_structural       Se2TaI6
_chemical_formula_sum              "Se2 Ta1 I6"
_cell_length_a       7.874493297862837
_cell_length_b       7.874492906043163
_cell_length_c       7.874493240598452
_cell_angle_alpha    59.99999888787672
_cell_angle_beta     59.999998681794644
_cell_angle_gamma    59.999999094654434

_space_group_name_H-M_alt    "P 1"
_space_group_IT_number       1

loop_
  _space_group_symop_operation_xyz
  'x, y, z'

loop_
  _atom_site_type_symbol
  _atom_site_label
  _atom_site_symmetry_multiplicity
  _atom_site_fract_x
  _atom_site_fract_y
  _atom_site_fract_z
  _atom_site_occupancy
  Se  Se1       1.0  0.2499999740542659  0.2500000936402903  0.24999998150270725  1.0000
  Se  Se2       1.0  0.7499999968950307  0.7499999247498986  0.7500000230012634  1.0000
  Ta  Ta1       1.0  0.9999999969630241  3.110663591297625e-08  7.105001042714291e-08  1.0000
  I   I1        1.0  0.24529338072595291  0.2452933641332053  0.7547066200688055  1.0000
  I   I2        1.0  0.7547066521976638  0.7547065827117231  0.24529337144171248  1.0000
  I   I3        1.0  0.7547066303843097  0.24529338289902528  0.2452933227136556  1.0000
  I   I4        1.0  0.24529339431789335  0.7547066106058558  0.7547066597369769  1.0000
  I   I5        1.0  0.24529335867788396  0.7547066183542072  0.24529331241168276  1.0000
  I   I6        1.0  0.7547066252172497  0.24529338759332722  0.7547066346941619  1.0000
