data_image0
_chemical_formula_structural       Se2TaI6
_chemical_formula_sum              "Se2 Ta1 I6"
_cell_length_a       7.87514722387214
_cell_length_b       7.875147401415602
_cell_length_c       7.87514712033234
_cell_angle_alpha    59.99999968439084
_cell_angle_beta     60.000002218207364
_cell_angle_gamma    59.999999088831856

_space_group_name_H-M_alt    "P 1"
_space_group_IT_number       1

loop_
  _space_group_symop_operation_xyz
  'x, y, z'

loop_
  _atom_site_type_symbol
  _atom_site_label
  _atom_site_symmetry_multiplicity
  _atom_site_fract_x
  _atom_site_fract_y
  _atom_site_fract_z
  _atom_site_occupancy
  Se  Se1       1.0  0.2500000498011008  0.24999997814162664  0.24999999543847287  1.0000
  Se  Se2       1.0  0.7499999152592249  0.750000038623452  0.7499999941463773  1.0000
  Ta  Ta1       1.0  0.9999999617730622  3.110405084606e-08  0.9999999845141795  1.0000
  I   I1        1.0  0.2452766256969633  0.24527662046169557  0.7547233685217158  1.0000
  I   I2        1.0  0.7547233992131497  0.7547234103002036  0.2452766095361818  1.0000
  I   I3        1.0  0.7547234100243685  0.24527657742420347  0.24527661616991547  1.0000
  I   I4        1.0  0.2452765981648122  0.7547234331200637  0.754723384166717  1.0000
  I   I5        1.0  0.24527662453129082  0.7547233705447802  0.24527660353871894  1.0000
  I   I6        1.0  0.7547234139030274  0.2452765404665268  0.7547234454098194  1.0000
