data_image0
_chemical_formula_structural       Se2TaBr6
_chemical_formula_sum              "Se2 Ta1 Br6"
_cell_length_a       9.798139224106652
_cell_length_b       9.798138644895444
_cell_length_c       9.798139572329479
_cell_angle_alpha    59.999986731504144
_cell_angle_beta     59.99999062573969
_cell_angle_gamma    59.999990724083354

_space_group_name_H-M_alt    "P 1"
_space_group_IT_number       1

loop_
  _space_group_symop_operation_xyz
  'x, y, z'

loop_
  _atom_site_type_symbol
  _atom_site_label
  _atom_site_symmetry_multiplicity
  _atom_site_fract_x
  _atom_site_fract_y
  _atom_site_fract_z
  _atom_site_occupancy
  Se  Se1       1.0  0.24999964346624942  0.25000006736721453  0.2500004022233364  1.0000
  Se  Se2       1.0  0.7500006318457011  0.7500005883447007  0.7499991452847612  1.0000
  Ta  Ta1       1.0  1.438087227340739e-08  0.9999999462509788  7.436854730309507e-09  1.0000
  Br  Br1       1.0  0.18218185649773622  0.18218178044091446  0.8178180703166902  1.0000
  Br  Br2       1.0  0.8178182331995042  0.8178179790373109  0.18218194565295168  1.0000
  Br  Br3       1.0  0.8178181183005068  0.18218170763836294  0.1821819254705098  1.0000
  Br  Br4       1.0  0.18218168507068325  0.8178180905891567  0.8178182295965538  1.0000
  Br  Br5       1.0  0.1821815577389807  0.8178181139444529  0.1821821882198132  1.0000
  Br  Br6       1.0  0.8178182483813083  0.1821817255323051  0.8178180775263271  1.0000
