data_image0
_chemical_formula_structural       Se2TiI6
_chemical_formula_sum              "Se2 Ti1 I6"
_cell_length_a       7.721152292078868
_cell_length_b       7.721152360521665
_cell_length_c       7.721152488263358
_cell_angle_alpha    59.99999821382732
_cell_angle_beta     59.99999964117648
_cell_angle_gamma    60.00000068291459

_space_group_name_H-M_alt    "P 1"
_space_group_IT_number       1

loop_
  _space_group_symop_operation_xyz
  'x, y, z'

loop_
  _atom_site_type_symbol
  _atom_site_label
  _atom_site_symmetry_multiplicity
  _atom_site_fract_x
  _atom_site_fract_y
  _atom_site_fract_z
  _atom_site_occupancy
  Se  Se1       1.0  0.24999997651343703  0.24999999070285714  0.2500000623464159  1.0000
  Se  Se2       1.0  0.7500000143303857  0.7499999959018805  0.749999970854626  1.0000
  Ti  Ti1       1.0  0.9999999587298133  2.0620863230492795e-08  3.6227530201156476e-08  1.0000
  I   I1        1.0  0.24276832387331  0.24276831690503486  0.7572316745610683  1.0000
  I   I2        1.0  0.7572316652780106  0.7572317061827709  0.2427683166369649  1.0000
  I   I3        1.0  0.7572316686601912  0.24276832491231357  0.24276833377728174  1.0000
  I   I4        1.0  0.24276838395283526  0.757231637899121  0.7572316351057897  1.0000
  I   I5        1.0  0.24276833587874017  0.7572316714403661  0.24276832021427575  1.0000
  I   I6        1.0  0.7572316689377838  0.2427683405438976  0.7572316570466359  1.0000
