data_image0
_chemical_formula_structural       Se2TaF6
_chemical_formula_sum              "Se2 Ta1 F6"
_cell_length_a       5.331296022209147
_cell_length_b       5.3312959875495345
_cell_length_c       5.331295879825766
_cell_angle_alpha    60.00000073723429
_cell_angle_beta     60.00000110799249
_cell_angle_gamma    60.00000056379303

_space_group_name_H-M_alt    "P 1"
_space_group_IT_number       1

loop_
  _space_group_symop_operation_xyz
  'x, y, z'

loop_
  _atom_site_type_symbol
  _atom_site_label
  _atom_site_symmetry_multiplicity
  _atom_site_fract_x
  _atom_site_fract_y
  _atom_site_fract_z
  _atom_site_occupancy
  Se  Se1       1.0  0.24999996316187675  0.25000000176741843  0.2500000274845366  1.0000
  Se  Se2       1.0  0.7499999725777825  0.7499999639513201  0.7500000597072848  1.0000
  Ta  Ta1       1.0  1.1373661746348113e-09  1.6080919279945353e-08  1.0148022942935706e-08  1.0000
  F   F1        1.0  0.25532955074744007  0.2553295147381172  0.74467045660168  1.0000
  F   F2        1.0  0.74467050866568  0.7446705153042985  0.25532948782294185  1.0000
  F   F3        1.0  0.7446704673082071  0.2553295200041453  0.25532951875805093  1.0000
  F   F4        1.0  0.2553295386145585  0.7446704755791574  0.7446704752684541  1.0000
  F   F5        1.0  0.2553295251353283  0.7446704802070748  0.25532949603719507  1.0000
  F   F6        1.0  0.7446704829533279  0.25532951537622806  0.7446704725220492  1.0000
