data_image0
_chemical_formula_structural       Se2TaCl6
_chemical_formula_sum              "Se2 Ta1 Cl6"
_cell_length_a       8.69226476465477
_cell_length_b       8.692264047670793
_cell_length_c       8.692261377476187
_cell_angle_alpha    60.000004825534546
_cell_angle_beta     60.00000518242884
_cell_angle_gamma    60.00000176442844

_space_group_name_H-M_alt    "P 1"
_space_group_IT_number       1

loop_
  _space_group_symop_operation_xyz
  'x, y, z'

loop_
  _atom_site_type_symbol
  _atom_site_label
  _atom_site_symmetry_multiplicity
  _atom_site_fract_x
  _atom_site_fract_y
  _atom_site_fract_z
  _atom_site_occupancy
  Se  Se1       1.0  0.24999940272606186  0.2500010836188595  0.2499997737433086  1.0000
  Se  Se2       1.0  0.7500002917184936  0.7499995508080249  0.7499996232866888  1.0000
  Ta  Ta1       1.0  0.9999999576401744  0.9999998760075103  1.3839769836936524e-07  1.0000
  Cl  Cl1       1.0  0.19157230670863806  0.19157316997544344  0.808427123416005  1.0000
  Cl  Cl2       1.0  0.8084270663290654  0.8084272051944276  0.1915723568652049  1.0000
  Cl  Cl3       1.0  0.8084274435583626  0.19157240084539545  0.19157342130946067  1.0000
  Cl  Cl4       1.0  0.19157328655962552  0.8084266569042402  0.8084275312735428  1.0000
  Cl  Cl5       1.0  0.19157290197069762  0.8084268425157756  0.19157307736675563  1.0000
  Cl  Cl6       1.0  0.8084273044096921  0.19157320858279359  0.8084269340351257  1.0000
