data_image0
_chemical_formula_structural       Se2TeF6
_chemical_formula_sum              "Se2 Te1 F6"
_cell_length_a       5.358702144515868
_cell_length_b       5.358702322477074
_cell_length_c       5.35870233839032
_cell_angle_alpha    59.99999974119655
_cell_angle_beta     59.999999892452976
_cell_angle_gamma    59.99999968511327

_space_group_name_H-M_alt    "P 1"
_space_group_IT_number       1

loop_
  _space_group_symop_operation_xyz
  'x, y, z'

loop_
  _atom_site_type_symbol
  _atom_site_label
  _atom_site_symmetry_multiplicity
  _atom_site_fract_x
  _atom_site_fract_y
  _atom_site_fract_z
  _atom_site_occupancy
  Se  Se1       1.0  0.2500000928360178  0.24999991280255052  0.2499999804243132  1.0000
  Se  Se2       1.0  0.7500001184392803  0.749999921249662  0.7499999485475538  1.0000
  Te  Te1       1.0  0.9999998994183142  1.1427625595227589e-07  7.899439181644018e-08  1.0000
  F   F1        1.0  0.2607828099515529  0.26078284124396545  0.7392171560055866  1.0000
  F   F2        1.0  0.7392172019454778  0.7392172030765588  0.2607828067098482  1.0000
  F   F3        1.0  0.7392171492576814  0.26078281820638183  0.2607828333516248  1.0000
  F   F4        1.0  0.2607827967551007  0.7392171781181155  0.7392171881700709  1.0000
  F   F5        1.0  0.26078279360442896  0.7392171718161374  0.26078282798816943  1.0000
  F   F6        1.0  0.7392171513850886  0.26078284050703576  0.7392171841796971  1.0000
