data_image0
_chemical_formula_structural       Se2TeBr6
_chemical_formula_sum              "Se2 Te1 Br6"
_cell_length_a       7.403246943864117
_cell_length_b       7.403246710507134
_cell_length_c       7.403246446574019
_cell_angle_alpha    59.999999794528414
_cell_angle_beta     59.99999814619749
_cell_angle_gamma    60.000002032006826

_space_group_name_H-M_alt    "P 1"
_space_group_IT_number       1

loop_
  _space_group_symop_operation_xyz
  'x, y, z'

loop_
  _atom_site_type_symbol
  _atom_site_label
  _atom_site_symmetry_multiplicity
  _atom_site_fract_x
  _atom_site_fract_y
  _atom_site_fract_z
  _atom_site_occupancy
  Se  Se1       1.0  0.2500000661951812  0.24999986139787658  0.2500000646143087  1.0000
  Se  Se2       1.0  0.7499998830565804  0.7500000722223836  0.7499998833670809  1.0000
  Te  Te1       1.0  0.9999999776286815  0.9999999735306425  4.7383237865182125e-08  1.0000
  Br  Br1       1.0  0.25525032810444526  0.2552503908507922  0.744749664220273  1.0000
  Br  Br2       1.0  0.7447496812654719  0.744749661881575  0.2552503643415861  1.0000
  Br  Br3       1.0  0.744749638135757  0.2552503693271226  0.2552503274224057  1.0000
  Br  Br4       1.0  0.2552504195855371  0.7447496834052463  0.7447496323887234  1.0000
  Br  Br5       1.0  0.2552503165178078  0.7447496785875507  0.2552503692207656  1.0000
  Br  Br6       1.0  0.7447497019753  0.25525030466275545  0.7447496476470074  1.0000
