data_image0
_chemical_formula_structural       Se2TiF6
_chemical_formula_sum              "Se2 Ti1 F6"
_cell_length_a       5.159735204128281
_cell_length_b       5.159735279279101
_cell_length_c       5.159735320876154
_cell_angle_alpha    60.000000245430066
_cell_angle_beta     59.99999960136117
_cell_angle_gamma    60.00000053840151

_space_group_name_H-M_alt    "P 1"
_space_group_IT_number       1

loop_
  _space_group_symop_operation_xyz
  'x, y, z'

loop_
  _atom_site_type_symbol
  _atom_site_label
  _atom_site_symmetry_multiplicity
  _atom_site_fract_x
  _atom_site_fract_y
  _atom_site_fract_z
  _atom_site_occupancy
  Se  Se1       1.0  0.24999996866012825  0.25000001483102613  0.2499999981695836  1.0000
  Se  Se2       1.0  0.7499999972381299  0.7499999922725954  0.7500000059994623  1.0000
  Ti  Ti1       1.0  0.9999999819609955  7.120974896659071e-09  0.9999999938305113  1.0000
  F   F1        1.0  0.25563756205854654  0.25563751022250064  0.7443624711692138  1.0000
  F   F2        1.0  0.7443624765387362  0.7443624399133212  0.2556375658339815  1.0000
  F   F3        1.0  0.7443624816900274  0.2556375294526384  0.25563752868065276  1.0000
  F   F4        1.0  0.255637534369147  0.74436246815635  0.744362468721839  1.0000
  F   F5        1.0  0.2556375232265434  0.7443624897017501  0.2556375342014303  1.0000
  F   F6        1.0  0.7443624772797457  0.25563754113845477  0.7443624407953087  1.0000
