data_image0
_chemical_formula_structural       Se2TeI6
_chemical_formula_sum              "Se2 Te1 I6"
_cell_length_a       7.778296203167428
_cell_length_b       7.7782961905511
_cell_length_c       7.77829614272787
_cell_angle_alpha    60.00000034202145
_cell_angle_beta     59.99999997756207
_cell_angle_gamma    59.99999979237917

_space_group_name_H-M_alt    "P 1"
_space_group_IT_number       1

loop_
  _space_group_symop_operation_xyz
  'x, y, z'

loop_
  _atom_site_type_symbol
  _atom_site_label
  _atom_site_symmetry_multiplicity
  _atom_site_fract_x
  _atom_site_fract_y
  _atom_site_fract_z
  _atom_site_occupancy
  Se  Se1       1.0  0.2500000228040211  0.24999994127363248  0.24999999566403686  1.0000
  Se  Se2       1.0  0.7499999952770213  0.7500000521331165  0.7499999839699812  1.0000
  Te  Te1       1.0  7.15242720892254e-09  1.417110312036198e-08  0.9999999636256628  1.0000
  I   I1        1.0  0.26820276921060676  0.2682027419170416  0.7317972386574849  1.0000
  I   I2        1.0  0.7317972292269737  0.7317972436168723  0.26820278816102533  1.0000
  I   I3        1.0  0.7317972230450984  0.2682027583735274  0.26820277510458895  1.0000
  I   I4        1.0  0.26820272689740776  0.7317972791210985  0.7317972384104453  1.0000
  I   I5        1.0  0.268202753516511  0.7317972432624347  0.2682027663180833  1.0000
  I   I6        1.0  0.7317972748815429  0.26820272810037593  0.7317972513201133  1.0000
