data_image0
_chemical_formula_structural       Se2VI6
_chemical_formula_sum              "Se2 V1 I6"
_cell_length_a       7.5091334858196905
_cell_length_b       7.509133557193177
_cell_length_c       7.5091335662741
_cell_angle_alpha    59.99999968562469
_cell_angle_beta     60.00000087684241
_cell_angle_gamma    59.999999779955

_space_group_name_H-M_alt    "P 1"
_space_group_IT_number       1

loop_
  _space_group_symop_operation_xyz
  'x, y, z'

loop_
  _atom_site_type_symbol
  _atom_site_label
  _atom_site_symmetry_multiplicity
  _atom_site_fract_x
  _atom_site_fract_y
  _atom_site_fract_z
  _atom_site_occupancy
  Se  Se1       1.0  0.2499999987656268  0.2499999785521973  0.2500000500191782  1.0000
  Se  Se2       1.0  0.749999975528174  0.7500000302549943  0.7499999813032415  1.0000
  V   V1        1.0  0.9999999912080173  3.0989131524129687e-08  0.999999980911156  1.0000
  I   I1        1.0  0.2461703645558709  0.24617038349322212  0.7538295962907946  1.0000
  I   I2        1.0  0.7538296129226681  0.7538295926938317  0.2461703831637469  1.0000
  I   I3        1.0  0.7538295892466134  0.24617041760733815  0.24617040483501101  1.0000
  I   I4        1.0  0.24617038349345485  0.7538296189269713  0.7538296027470236  1.0000
  I   I5        1.0  0.2461704206779293  0.7538295853547619  0.24617041944473803  1.0000
  I   I6        1.0  0.7538296649079695  0.24617036636718712  0.7538295874376783  1.0000
