data_image0
_chemical_formula_structural       Se2VBr6
_chemical_formula_sum              "Se2 V1 Br6"
_cell_length_a       7.254268192136159
_cell_length_b       7.2542680885569695
_cell_length_c       7.254267924510879
_cell_angle_alpha    60.00000005808627
_cell_angle_beta     60.00000077049442
_cell_angle_gamma    60.0000000217176

_space_group_name_H-M_alt    "P 1"
_space_group_IT_number       1

loop_
  _space_group_symop_operation_xyz
  'x, y, z'

loop_
  _atom_site_type_symbol
  _atom_site_label
  _atom_site_symmetry_multiplicity
  _atom_site_fract_x
  _atom_site_fract_y
  _atom_site_fract_z
  _atom_site_occupancy
  Se  Se1       1.0  0.2500001271755148  0.24999986885874517  0.24999993335039694  1.0000
  Se  Se2       1.0  0.7500000779290582  0.7500000016406251  0.7499999583355683  1.0000
  V   V1        1.0  0.9999999877156208  3.207787811753447e-08  0.9999999515052825  1.0000
  Br  Br1       1.0  0.23753248979138186  0.2375325672413548  0.7624674674370929  1.0000
  Br  Br2       1.0  0.7624674445357421  0.7624674518292383  0.23753256806191672  1.0000
  Br  Br3       1.0  0.762467456199371  0.23753256438075018  0.23753251785537705  1.0000
  Br  Br4       1.0  0.23753248222712023  0.7624674901443393  0.7624675406001649  1.0000
  Br  Br5       1.0  0.23753247716866682  0.762467493357814  0.23753252952325152  1.0000
  Br  Br6       1.0  0.762467461370947  0.23753252740108838  0.7624675278383376  1.0000
