data_image0
_chemical_formula_structural       Se2VF6
_chemical_formula_sum              "Se2 V1 F6"
_cell_length_a       5.222370373842744
_cell_length_b       5.222370499756168
_cell_length_c       5.2223701955568185
_cell_angle_alpha    60.00000004067144
_cell_angle_beta     59.999999732858896
_cell_angle_gamma    59.99999932089413

_space_group_name_H-M_alt    "P 1"
_space_group_IT_number       1

loop_
  _space_group_symop_operation_xyz
  'x, y, z'

loop_
  _atom_site_type_symbol
  _atom_site_label
  _atom_site_symmetry_multiplicity
  _atom_site_fract_x
  _atom_site_fract_y
  _atom_site_fract_z
  _atom_site_occupancy
  Se  Se1       1.0  0.24999998490021455  0.2500000583397186  0.2499999343064974  1.0000
  Se  Se2       1.0  0.7500000420972535  0.7499999592617147  0.7499999685863961  1.0000
  V   V1        1.0  1.0273599798360146e-08  2.3451890251688304e-09  1.8583517119054872e-08  1.0000
  F   F1        1.0  0.2522946392418098  0.25229464234379556  0.7477053710324755  1.0000
  F   F2        1.0  0.7477053357400512  0.7477053588413098  0.2522946694777116  1.0000
  F   F3        1.0  0.747705394045346  0.25229463572517236  0.25229461052272306  1.0000
  F   F4        1.0  0.2522946255602056  0.7477053443532271  0.7477053895063812  1.0000
  F   F5        1.0  0.2522946355891037  0.7477053617128718  0.2522946402420422  1.0000
  F   F6        1.0  0.7477053283374275  0.2522946394722341  0.7477053923919342  1.0000
