data_image0
_chemical_formula_structural       Se2VCl6
_chemical_formula_sum              "Se2 V1 Cl6"
_cell_length_a       6.77525925951331
_cell_length_b       6.775258440388045
_cell_length_c       6.775258779787839
_cell_angle_alpha    59.9999968284486
_cell_angle_beta     59.9999998275606
_cell_angle_gamma    59.9999992158755

_space_group_name_H-M_alt    "P 1"
_space_group_IT_number       1

loop_
  _space_group_symop_operation_xyz
  'x, y, z'

loop_
  _atom_site_type_symbol
  _atom_site_label
  _atom_site_symmetry_multiplicity
  _atom_site_fract_x
  _atom_site_fract_y
  _atom_site_fract_z
  _atom_site_occupancy
  Se  Se1       1.0  0.24999991192939333  0.2500001375330719  0.25000002671024235  1.0000
  Se  Se2       1.0  0.7500000069360023  0.7499997781061339  0.7500001525824384  1.0000
  V   V1        1.0  0.9999999503156182  1.0303733899068302e-07  0.9999998434391834  1.0000
  Cl  Cl1       1.0  0.2376816710448432  0.23768178616727115  0.7623182715676242  1.0000
  Cl  Cl2       1.0  0.7623184312458194  0.7623181927404833  0.23768168253701605  1.0000
  Cl  Cl3       1.0  0.7623182854137319  0.23768176704854999  0.23768160717332834  1.0000
  Cl  Cl4       1.0  0.23768161890159625  0.7623183456269731  0.7623183052371781  1.0000
  Cl  Cl5       1.0  0.237681766752203  0.7623182538421647  0.23768178647656654  1.0000
  Cl  Cl6       1.0  0.762318374583572  0.23768164372032183  0.7623183201384478  1.0000
