data_image0
_chemical_formula_structural       Se2WBr6
_chemical_formula_sum              "Se2 W1 Br6"
_cell_length_a       7.690422734677704
_cell_length_b       7.690422071516242
_cell_length_c       7.69042288245526
_cell_angle_alpha    60.00000235363105
_cell_angle_beta     60.00000562197691
_cell_angle_gamma    59.99999864481572

_space_group_name_H-M_alt    "P 1"
_space_group_IT_number       1

loop_
  _space_group_symop_operation_xyz
  'x, y, z'

loop_
  _atom_site_type_symbol
  _atom_site_label
  _atom_site_symmetry_multiplicity
  _atom_site_fract_x
  _atom_site_fract_y
  _atom_site_fract_z
  _atom_site_occupancy
  Se  Se1       1.0  0.249999720734125  0.25000013596888393  0.25000006704255695  1.0000
  Se  Se2       1.0  0.7499999627378194  0.7500001323939816  0.7500000842519939  1.0000
  W   W1        1.0  3.464071471609901e-08  0.999999968148824  0.999999977800133  1.0000
  Br  Br1       1.0  0.22618991849524656  0.2261898427037187  0.7738101137580404  1.0000
  Br  Br2       1.0  0.7738101900982968  0.7738100737036564  0.22618989692797184  1.0000
  Br  Br3       1.0  0.7738101849996187  0.22618991710281683  0.22618978708761345  1.0000
  Br  Br4       1.0  0.2261899338154007  0.7738100407110808  0.7738101080624177  1.0000
  Br  Br5       1.0  0.22618988515664365  0.7738100110241091  0.22618990393138103  1.0000
  Br  Br6       1.0  0.7738101763758364  0.22618987990232414  0.7738100611055581  1.0000
