data_image0
_chemical_formula_structural       Se2WI6
_chemical_formula_sum              "Se2 W1 I6"
_cell_length_a       7.680609952999498
_cell_length_b       7.680610179306117
_cell_length_c       7.680610197071111
_cell_angle_alpha    59.999999603838205
_cell_angle_beta     60.00000047283572
_cell_angle_gamma    60.000001277192055

_space_group_name_H-M_alt    "P 1"
_space_group_IT_number       1

loop_
  _space_group_symop_operation_xyz
  'x, y, z'

loop_
  _atom_site_type_symbol
  _atom_site_label
  _atom_site_symmetry_multiplicity
  _atom_site_fract_x
  _atom_site_fract_y
  _atom_site_fract_z
  _atom_site_occupancy
  Se  Se1       1.0  0.25000000549935353  0.2499999626612966  0.24999998062845458  1.0000
  Se  Se2       1.0  0.749999974824956  0.7500000761458846  0.7499999897250471  1.0000
  W   W1        1.0  2.5026217234872646e-08  1.5945930572818609e-09  2.8352951537010925e-08  1.0000
  I   I1        1.0  0.2476503828651302  0.24765033763668612  0.7523496514984286  1.0000
  I   I2        1.0  0.7523496485147712  0.7523496517381063  0.24765034538504974  1.0000
  I   I3        1.0  0.7523496209249446  0.2476503659355485  0.24765038780519125  1.0000
  I   I4        1.0  0.2476503750118041  0.7523495899527869  0.7523496253153733  1.0000
  I   I5        1.0  0.2476503686737523  0.7523496217962411  0.24765037245825836  1.0000
  I   I6        1.0  0.7523495965410383  0.24765039468663522  0.7523496244240344  1.0000
