data_image0
_chemical_formula_structural       Se2WF6
_chemical_formula_sum              "Se2 W1 F6"
_cell_length_a       5.349719863266698
_cell_length_b       5.349719517815389
_cell_length_c       5.349719804135981
_cell_angle_alpha    59.999999202473354
_cell_angle_beta     59.99999926551663
_cell_angle_gamma    59.99999917542908

_space_group_name_H-M_alt    "P 1"
_space_group_IT_number       1

loop_
  _space_group_symop_operation_xyz
  'x, y, z'

loop_
  _atom_site_type_symbol
  _atom_site_label
  _atom_site_symmetry_multiplicity
  _atom_site_fract_x
  _atom_site_fract_y
  _atom_site_fract_z
  _atom_site_occupancy
  Se  Se1       1.0  0.24999993463589282  0.2500000167924679  0.25000001244340525  1.0000
  Se  Se2       1.0  0.7499999741843926  0.7500000251944149  0.7499999946914603  1.0000
  W   W1        1.0  1.8110416330067211e-16  0.9999999999999998  0.9999999887844593  1.0000
  F   F1        1.0  0.2576648043649242  0.25766474930762323  0.7423352258814367  1.0000
  F   F2        1.0  0.7423352439043049  0.7423352239983769  0.25766477390824793  1.0000
  F   F3        1.0  0.7423352119876857  0.25766476585420867  0.2576648001739908  1.0000
  F   F4        1.0  0.25766480859225854  0.7423352257666933  0.7423351837410613  1.0000
  F   F5        1.0  0.2576647657496127  0.7423352344318561  0.25766478538198617  1.0000
  F   F6        1.0  0.7423352506443984  0.25766475032095787  0.7423352320989282  1.0000
