data_image0
_chemical_formula_structural       Se2YCl6
_chemical_formula_sum              "Se2 Y1 Cl6"
_cell_length_a       6.970509052659945
_cell_length_b       6.970509513948067
_cell_length_c       6.970509593748929
_cell_angle_alpha    59.99999929009574
_cell_angle_beta     60.00000053293997
_cell_angle_gamma    59.99999826632961

_space_group_name_H-M_alt    "P 1"
_space_group_IT_number       1

loop_
  _space_group_symop_operation_xyz
  'x, y, z'

loop_
  _atom_site_type_symbol
  _atom_site_label
  _atom_site_symmetry_multiplicity
  _atom_site_fract_x
  _atom_site_fract_y
  _atom_site_fract_z
  _atom_site_occupancy
  Se  Se1       1.0  0.25000002383884806  0.250000035613738  0.24999993148178704  1.0000
  Se  Se2       1.0  0.7499998888279608  0.7500000734574989  0.7500000330315022  1.0000
  Y   Y1        1.0  1.7854600689182853e-08  0.9999999613451667  6.061165378014679e-08  1.0000
  Cl  Cl1       1.0  0.26368780542735254  0.26368774918572224  0.7363122219364355  1.0000
  Cl  Cl2       1.0  0.7363122492033889  0.7363122122943337  0.2636877425212508  1.0000
  Cl  Cl3       1.0  0.7363121822200135  0.263687712759076  0.2636877677454864  1.0000
  Cl  Cl4       1.0  0.2636878132113115  0.7363121678972423  0.7363122437699303  1.0000
  Cl  Cl5       1.0  0.2636877422417833  0.7363123017161983  0.26368773551293095  1.0000
  Cl  Cl6       1.0  0.7363122558967687  0.26368778451354297  0.7363122952390799  1.0000
