data_image0
_chemical_formula_structural       Se2YI6
_chemical_formula_sum              "Se2 Y1 I6"
_cell_length_a       8.001765293212019
_cell_length_b       8.00176525191618
_cell_length_c       8.001765383640956
_cell_angle_alpha    59.999998609327
_cell_angle_beta     59.9999989863118
_cell_angle_gamma    60.00000023439109

_space_group_name_H-M_alt    "P 1"
_space_group_IT_number       1

loop_
  _space_group_symop_operation_xyz
  'x, y, z'

loop_
  _atom_site_type_symbol
  _atom_site_label
  _atom_site_symmetry_multiplicity
  _atom_site_fract_x
  _atom_site_fract_y
  _atom_site_fract_z
  _atom_site_occupancy
  Se  Se1       1.0  0.2500000336421366  0.24999995921040788  0.24999997179501582  1.0000
  Se  Se2       1.0  0.7499999255411004  0.7500000444658977  0.7500000283863721  1.0000
  Y   Y1        1.0  4.483732929050945e-08  0.9999999693881328  4.0376789252290603e-08  1.0000
  I   I1        1.0  0.2665022845348774  0.26650224418167945  0.7334977596877665  1.0000
  I   I2        1.0  0.733497720753674  0.7334977380663195  0.2665022606479472  1.0000
  I   I3        1.0  0.7334977213869732  0.26650227967571277  0.2665022953896494  1.0000
  I   I4        1.0  0.2665023170043591  0.7334977071640665  0.7334977048490593  1.0000
  I   I5        1.0  0.26650226750122263  0.7334977824521516  0.26650222897542825  1.0000
  I   I6        1.0  0.7334976944505558  0.26650227785610897  0.7334977015145361  1.0000
