data_image0
_chemical_formula_structural       Se2YBr6
_chemical_formula_sum              "Se2 Y1 Br6"
_cell_length_a       7.424197770888906
_cell_length_b       7.424197582755507
_cell_length_c       7.424197818785774
_cell_angle_alpha    59.999998665723375
_cell_angle_beta     59.999998132176806
_cell_angle_gamma    59.99999885306931

_space_group_name_H-M_alt    "P 1"
_space_group_IT_number       1

loop_
  _space_group_symop_operation_xyz
  'x, y, z'

loop_
  _atom_site_type_symbol
  _atom_site_label
  _atom_site_symmetry_multiplicity
  _atom_site_fract_x
  _atom_site_fract_y
  _atom_site_fract_z
  _atom_site_occupancy
  Se  Se1       1.0  0.24999994383775842  0.24999992587273073  0.2500000521381557  1.0000
  Se  Se2       1.0  0.7500000405190916  0.7500000184694795  0.7499999395675934  1.0000
  Y   Y1        1.0  4.227668630645267e-08  0.999999985153003  0.999999995713783  1.0000
  Br  Br1       1.0  0.26200379477468977  0.2620037691376974  0.7379962372699823  1.0000
  Br  Br2       1.0  0.7379962182679434  0.7379962477898322  0.26200378327008034  1.0000
  Br  Br3       1.0  0.7379962236109265  0.26200377801308666  0.26200379076602487  1.0000
  Br  Br4       1.0  0.26200378432639104  0.7379962075707823  0.7379962048962262  1.0000
  Br  Br5       1.0  0.2620037367213243  0.7379962622086487  0.2620037781906017  1.0000
  Br  Br6       1.0  0.7379962242409712  0.26200379431087295  0.7379962027974407  1.0000
