data_image0
_chemical_formula_structural       Se2YF6
_chemical_formula_sum              "Se2 Y1 F6"
_cell_length_a       6.094241160406471
_cell_length_b       6.094236702502363
_cell_length_c       6.094237348537918
_cell_angle_alpha    59.9999874252525
_cell_angle_beta     60.00000919122863
_cell_angle_gamma    60.00000343431961

_space_group_name_H-M_alt    "P 1"
_space_group_IT_number       1

loop_
  _space_group_symop_operation_xyz
  'x, y, z'

loop_
  _atom_site_type_symbol
  _atom_site_label
  _atom_site_symmetry_multiplicity
  _atom_site_fract_x
  _atom_site_fract_y
  _atom_site_fract_z
  _atom_site_occupancy
  Se  Se1       1.0  0.25000242944194045  0.24999603909413212  0.25000127915275594  1.0000
  Se  Se2       1.0  0.7499975425402825  0.7499997392455047  0.7500031372992231  1.0000
  Y   Y1        1.0  0.9999998027137182  2.1101608346738354e-07  2.5567820747206833e-07  1.0000
  F   F1        1.0  0.25419327212881765  0.2541927577474852  0.7458065257208314  1.0000
  F   F2        1.0  0.7458062153454832  0.7458080608635775  0.2541922079931911  1.0000
  F   F3        1.0  0.7458071014691882  0.2541935305107788  0.25419181273084757  1.0000
  F   F4        1.0  0.2541929349635365  0.7458083753359823  0.7458059502828115  1.0000
  F   F5        1.0  0.2541938603220158  0.7458078960616361  0.2541917452682364  1.0000
  F   F6        1.0  0.7458068757036487  0.25419325816581007  0.7458071579259056  1.0000
