data_image0
_chemical_formula_structural       Se2ZrBr6
_chemical_formula_sum              "Se2 Zr1 Br6"
_cell_length_a       7.410072443934502
_cell_length_b       7.4100726863386095
_cell_length_c       7.410072705741424
_cell_angle_alpha    59.999999983494675
_cell_angle_beta     60.000000107884254
_cell_angle_gamma    60.00000120809168

_space_group_name_H-M_alt    "P 1"
_space_group_IT_number       1

loop_
  _space_group_symop_operation_xyz
  'x, y, z'

loop_
  _atom_site_type_symbol
  _atom_site_label
  _atom_site_symmetry_multiplicity
  _atom_site_fract_x
  _atom_site_fract_y
  _atom_site_fract_z
  _atom_site_occupancy
  Se  Se1       1.0  0.2500000045998702  0.25000000932561733  0.25000002623318435  1.0000
  Se  Se2       1.0  0.7500001407472512  0.7499998808766865  0.7499999767661197  1.0000
  Zr  Zr1       1.0  0.9999999498512996  1.4875297568900361e-08  0.9999999758017538  1.0000
  Br  Br1       1.0  0.25098652353963324  0.2509866246656837  0.7490134317256155  1.0000
  Br  Br2       1.0  0.7490134349050245  0.7490134242064618  0.2509865691958249  1.0000
  Br  Br3       1.0  0.7490134124108265  0.25098660293499764  0.2509865906398511  1.0000
  Br  Br4       1.0  0.25098656300213285  0.7490134277562286  0.7490133906451817  1.0000
  Br  Br5       1.0  0.2509865450185335  0.7490134297629104  0.2509866239245855  1.0000
  Br  Br6       1.0  0.7490134231539379  0.2509865992755046  0.7490134157876738  1.0000
