data_image0
_chemical_formula_structural       Se2ZrCl6
_chemical_formula_sum              "Se2 Zr1 Cl6"
_cell_length_a       6.977317522085352
_cell_length_b       6.977317550321037
_cell_length_c       6.977317388194135
_cell_angle_alpha    60.0000056435842
_cell_angle_beta     60.000000863835965
_cell_angle_gamma    60.00000867632464

_space_group_name_H-M_alt    "P 1"
_space_group_IT_number       1

loop_
  _space_group_symop_operation_xyz
  'x, y, z'

loop_
  _atom_site_type_symbol
  _atom_site_label
  _atom_site_symmetry_multiplicity
  _atom_site_fract_x
  _atom_site_fract_y
  _atom_site_fract_z
  _atom_site_occupancy
  Se  Se1       1.0  0.25000005369283157  0.24999995338512995  0.250000125907271  1.0000
  Se  Se2       1.0  0.7499998448339138  0.7499999549428118  0.750000249103393  1.0000
  Zr  Zr1       1.0  2.860138993993207e-08  3.335113769503458e-08  0.9999998629657844  1.0000
  Cl  Cl1       1.0  0.25062186757045707  0.2506216985636258  0.7493782139601622  1.0000
  Cl  Cl2       1.0  0.7493781168091836  0.7493783940732389  0.2506216017377875  1.0000
  Cl  Cl3       1.0  0.7493783181932555  0.2506217818541397  0.25062169929471784  1.0000
  Cl  Cl4       1.0  0.25062174498941775  0.7493782282825469  0.7493782873712401  1.0000
  Cl  Cl5       1.0  0.2506216321549453  0.7493782257257506  0.25062180922571337  1.0000
  Cl  Cl6       1.0  0.749378385793827  0.25062172648526154  0.7493781487599577  1.0000
