data_image0
_chemical_formula_structural       Si2NO6
_chemical_formula_sum              "Si2 N1 O6"
_cell_length_a       4.8731820570726
_cell_length_b       4.873182112917125
_cell_length_c       4.873182126925692
_cell_angle_alpha    60.00000007219663
_cell_angle_beta     60.00000102337817
_cell_angle_gamma    59.99999798507452

_space_group_name_H-M_alt    "P 1"
_space_group_IT_number       1

loop_
  _space_group_symop_operation_xyz
  'x, y, z'

loop_
  _atom_site_type_symbol
  _atom_site_label
  _atom_site_symmetry_multiplicity
  _atom_site_fract_x
  _atom_site_fract_y
  _atom_site_fract_z
  _atom_site_occupancy
  Si  Si1       1.0  0.24999978897089997  0.2500012767414367  0.2499993957050385  1.0000
  Si  Si2       1.0  0.7500003005176865  0.7500011360370331  0.7499986918816202  1.0000
  N   N1        1.0  0.9999991983105383  3.3149561663464962e-06  0.9999985874110515  1.0000
  O   O1        1.0  0.2468157960613315  0.24681526531960055  0.7531846885107949  1.0000
  O   O2        1.0  0.7531839100264125  0.7531827317060752  0.24681668924118028  1.0000
  O   O3        1.0  0.7531838848695148  0.24681503126694362  0.24681649263320335  1.0000
  O   O4        1.0  0.24681661330060317  0.7531830135101655  0.7531839891269143  1.0000
  O   O5        1.0  0.24681619507613253  0.7531830581403371  0.24681700438624318  1.0000
  O   O6        1.0  0.7531843149619277  0.24681519272198643  0.753184431357774  1.0000
