data_image0
_chemical_formula_structural       Sn2AsS6
_chemical_formula_sum              "Sn2 As1 S6"
_cell_length_a       6.481790435870021
_cell_length_b       6.481790368093489
_cell_length_c       6.481790254113593
_cell_angle_alpha    59.99999967940433
_cell_angle_beta     59.99999879773184
_cell_angle_gamma    59.99999971934942

_space_group_name_H-M_alt    "P 1"
_space_group_IT_number       1

loop_
  _space_group_symop_operation_xyz
  'x, y, z'

loop_
  _atom_site_type_symbol
  _atom_site_label
  _atom_site_symmetry_multiplicity
  _atom_site_fract_x
  _atom_site_fract_y
  _atom_site_fract_z
  _atom_site_occupancy
  Sn  Sn1       1.0  0.24999999073893145  0.24999997408235866  0.24999998763002224  1.0000
  Sn  Sn2       1.0  0.7499999841281063  0.7499999827115983  0.7500000516676243  1.0000
  As  As1       1.0  7.755651268634221e-09  0.9999999981104837  0.9999999878102305  1.0000
  S   S1        1.0  0.2566476422798329  0.25664749930481473  0.7433524226918379  1.0000
  S   S2        1.0  0.7433523509420532  0.7433524291463974  0.256647561431195  1.0000
  S   S3        1.0  0.7433524055437485  0.25664762782876893  0.2566475881922105  1.0000
  S   S4        1.0  0.256647565074922  0.7433524272200371  0.7433524195300311  1.0000
  S   S5        1.0  0.2566476479716977  0.7433524717401144  0.25664754182397387  1.0000
  S   S6        1.0  0.7433524269252798  0.25664756441352843  0.7433524370917471  1.0000
