data_image0
_chemical_formula_structural       Sn2AsSe6
_chemical_formula_sum              "Sn2 As1 Se6"
_cell_length_a       6.57298145364087
_cell_length_b       6.572981747738174
_cell_length_c       6.572981656892452
_cell_angle_alpha    59.999999429379876
_cell_angle_beta     59.999998759959965
_cell_angle_gamma    59.99999856230591

_space_group_name_H-M_alt    "P 1"
_space_group_IT_number       1

loop_
  _space_group_symop_operation_xyz
  'x, y, z'

loop_
  _atom_site_type_symbol
  _atom_site_label
  _atom_site_symmetry_multiplicity
  _atom_site_fract_x
  _atom_site_fract_y
  _atom_site_fract_z
  _atom_site_occupancy
  Sn  Sn1       1.0  0.2500000993166256  0.25000007491209164  0.24999984839327205  1.0000
  Sn  Sn2       1.0  0.7499999066601496  0.7500001390243963  0.7500000590503225  1.0000
  As  As1       1.0  3.5914135914956056e-08  8.198528040907694e-08  0.99999980412613  1.0000
  Se  Se1       1.0  0.28238952120022376  0.28238941380717064  0.7176105379190374  1.0000
  Se  Se2       1.0  0.7176105719986194  0.7176104330588606  0.2823893755673521  1.0000
  Se  Se3       1.0  0.7176105543154351  0.2823895047386685  0.2823894196278621  1.0000
  Se  Se4       1.0  0.2823892798938527  0.7176105657235823  0.7176107534545456  1.0000
  Se  Se5       1.0  0.2823894305856859  0.717610527581559  0.28238948566138566  1.0000
  Se  Se6       1.0  0.7176105889550134  0.2823892820184347  0.717610726707826  1.0000
