data_image0
_chemical_formula_structural       Sn2AsBr6
_chemical_formula_sum              "Sn2 As1 Br6"
_cell_length_a       7.235040466970648
_cell_length_b       7.235040426866786
_cell_length_c       7.235040555446542
_cell_angle_alpha    59.99999933154354
_cell_angle_beta     59.99999980879039
_cell_angle_gamma    59.999999569731834

_space_group_name_H-M_alt    "P 1"
_space_group_IT_number       1

loop_
  _space_group_symop_operation_xyz
  'x, y, z'

loop_
  _atom_site_type_symbol
  _atom_site_label
  _atom_site_symmetry_multiplicity
  _atom_site_fract_x
  _atom_site_fract_y
  _atom_site_fract_z
  _atom_site_occupancy
  Sn  Sn1       1.0  0.2500001731564862  0.25000000748800677  0.24999992959351217  1.0000
  Sn  Sn2       1.0  0.7500000356624534  0.7499999225890456  0.7499998138642097  1.0000
  As  As1       1.0  0.9999999939065038  0.9999999847648344  0.9999999926962215  1.0000
  Br  Br1       1.0  0.25360475537853666  0.25360485164763974  0.7463952001350203  1.0000
  Br  Br2       1.0  0.7463951500402787  0.7463951986179411  0.2536049196539244  1.0000
  Br  Br3       1.0  0.7463951905059897  0.25360476081398176  0.25360480178442557  1.0000
  Br  Br4       1.0  0.25360479776017536  0.7463952132757711  0.7463952469428078  1.0000
  Br  Br5       1.0  0.2536047135241435  0.7463952090446991  0.2536048482373776  1.0000
  Br  Br6       1.0  0.7463951799648963  0.2536048530704552  0.7463952467127474  1.0000
