data_image0
_chemical_formula_structural       Sn2AsI6
_chemical_formula_sum              "Sn2 As1 I6"
_cell_length_a       7.806617107174265
_cell_length_b       7.806617221218185
_cell_length_c       7.806617175648274
_cell_angle_alpha    59.99999904674702
_cell_angle_beta     60.00000121974836
_cell_angle_gamma    59.9999992743904

_space_group_name_H-M_alt    "P 1"
_space_group_IT_number       1

loop_
  _space_group_symop_operation_xyz
  'x, y, z'

loop_
  _atom_site_type_symbol
  _atom_site_label
  _atom_site_symmetry_multiplicity
  _atom_site_fract_x
  _atom_site_fract_y
  _atom_site_fract_z
  _atom_site_occupancy
  Sn  Sn1       1.0  0.24999996910353725  0.25000007395070606  0.24999994613339838  1.0000
  Sn  Sn2       1.0  0.7499999570525951  0.749999966128784  0.7500000336203222  1.0000
  As  As1       1.0  0.999999996593117  2.3532822243346133e-08  0.9999999758464199  1.0000
  I   I1        1.0  0.2557331378170837  0.2557331180885451  0.7442668861169036  1.0000
  I   I2        1.0  0.7442668740107469  0.7442668247219458  0.25573315195501645  1.0000
  I   I3        1.0  0.744266899625133  0.25573313763989025  0.2557331185588498  1.0000
  I   I4        1.0  0.25573311008010213  0.7442668647870828  0.7442668997328782  1.0000
  I   I5        1.0  0.25573314155584775  0.744266845683691  0.25573313248350515  1.0000
  I   I6        1.0  0.7442669087883104  0.25573314576129846  0.7442668581701082  1.0000
