data_image0
_chemical_formula_structural       Sn2BI6
_chemical_formula_sum              "Sn2 B1 I6"
_cell_length_a       7.343625125761711
_cell_length_b       7.343625093733252
_cell_length_c       7.343625034971945
_cell_angle_alpha    59.99999880135168
_cell_angle_beta     60.00000032106228
_cell_angle_gamma    59.999997443028825

_space_group_name_H-M_alt    "P 1"
_space_group_IT_number       1

loop_
  _space_group_symop_operation_xyz
  'x, y, z'

loop_
  _atom_site_type_symbol
  _atom_site_label
  _atom_site_symmetry_multiplicity
  _atom_site_fract_x
  _atom_site_fract_y
  _atom_site_fract_z
  _atom_site_occupancy
  Sn  Sn1       1.0  0.24999974225816973  0.25000001266264  0.2500000150982044  1.0000
  Sn  Sn2       1.0  0.7499998937191311  0.7500000796820518  0.7500000681731435  1.0000
  B   B1        1.0  0.9999999989835373  0.9999999983322332  4.491732432334951e-08  1.0000
  I   I1        1.0  0.24025405221415627  0.24025404830300057  0.7597459503329279  1.0000
  I   I2        1.0  0.7597459967472704  0.7597458806006032  0.24025406808281582  1.0000
  I   I3        1.0  0.7597460872058629  0.24025405945195652  0.24025399886203094  1.0000
  I   I4        1.0  0.24025411062249374  0.7597459511721824  0.7597459423882875  1.0000
  I   I5        1.0  0.24025408736604542  0.7597459562818417  0.24025400547691897  1.0000
  I   I6        1.0  0.7597460278889602  0.24025401431591417  0.7597459058376722  1.0000
