data_image0
_chemical_formula_structural       Sn2BiBr6
_chemical_formula_sum              "Sn2 Bi1 Br6"
_cell_length_a       7.420444591611419
_cell_length_b       7.420444593297288
_cell_length_c       7.420444739124905
_cell_angle_alpha    59.999999022312664
_cell_angle_beta     59.99999933202126
_cell_angle_gamma    60.00000039898646

_space_group_name_H-M_alt    "P 1"
_space_group_IT_number       1

loop_
  _space_group_symop_operation_xyz
  'x, y, z'

loop_
  _atom_site_type_symbol
  _atom_site_label
  _atom_site_symmetry_multiplicity
  _atom_site_fract_x
  _atom_site_fract_y
  _atom_site_fract_z
  _atom_site_occupancy
  Sn  Sn1       1.0  0.2500000183736818  0.2500001544679931  0.24999993590924235  1.0000
  Sn  Sn2       1.0  0.7500000564481106  0.750000067283818  0.7499999768240853  1.0000
  Bi  Bi1       1.0  2.865448571726498e-08  0.9999999933979975  2.4012089546859723e-08  1.0000
  Br  Br1       1.0  0.2652508332247292  0.26525079717402844  0.7347491869362902  1.0000
  Br  Br2       1.0  0.7347492046012349  0.7347491340896641  0.2652508032908121  1.0000
  Br  Br3       1.0  0.7347491053179451  0.2652508462475177  0.2652508729647778  1.0000
  Br  Br4       1.0  0.2652508254036251  0.7347490982201791  0.7347491736459161  1.0000
  Br  Br5       1.0  0.26525079924098116  0.7347491114988761  0.26525085586603775  1.0000
  Br  Br6       1.0  0.7347491285733576  0.2652507950073053  0.7347491761406987  1.0000
