data_image0
_chemical_formula_structural       Sn2BiCl6
_chemical_formula_sum              "Sn2 Bi1 Cl6"
_cell_length_a       7.010414123493017
_cell_length_b       7.010414179680403
_cell_length_c       7.010414145278341
_cell_angle_alpha    60.00000121244651
_cell_angle_beta     60.00000098866046
_cell_angle_gamma    59.9999973103507

_space_group_name_H-M_alt    "P 1"
_space_group_IT_number       1

loop_
  _space_group_symop_operation_xyz
  'x, y, z'

loop_
  _atom_site_type_symbol
  _atom_site_label
  _atom_site_symmetry_multiplicity
  _atom_site_fract_x
  _atom_site_fract_y
  _atom_site_fract_z
  _atom_site_occupancy
  Sn  Sn1       1.0  0.24999997029254725  0.2500000632318031  0.25000013097896845  1.0000
  Sn  Sn2       1.0  0.7500000276264002  0.750000027221018  0.7500001618917548  1.0000
  Bi  Bi1       1.0  0.9999999877222591  0.9999999528300169  0.9999999013434291  1.0000
  Cl  Cl1       1.0  0.26343691862029645  0.26343691132932506  0.7365629844051744  1.0000
  Cl  Cl2       1.0  0.7365631677637369  0.7365630026728127  0.2634368289514721  1.0000
  Cl  Cl3       1.0  0.7365630240587873  0.26343695835117265  0.2634368452413229  1.0000
  Cl  Cl4       1.0  0.263436839113064  0.736563086678705  0.736563202498845  1.0000
  Cl  Cl5       1.0  0.2634369352940157  0.7365631284207174  0.26343686435197766  1.0000
  Cl  Cl6       1.0  0.7365631292434893  0.26343686594509663  0.7365630937729036  1.0000
