data_image0
_chemical_formula_structural       Sn2BBr6
_chemical_formula_sum              "Sn2 B1 Br6"
_cell_length_a       6.823394417486557
_cell_length_b       6.823394611359766
_cell_length_c       6.823394341928961
_cell_angle_alpha    60.00000376370327
_cell_angle_beta     60.00000330954225
_cell_angle_gamma    59.99999953352859

_space_group_name_H-M_alt    "P 1"
_space_group_IT_number       1

loop_
  _space_group_symop_operation_xyz
  'x, y, z'

loop_
  _atom_site_type_symbol
  _atom_site_label
  _atom_site_symmetry_multiplicity
  _atom_site_fract_x
  _atom_site_fract_y
  _atom_site_fract_z
  _atom_site_occupancy
  Sn  Sn1       1.0  0.2500000858855726  0.24999984383489207  0.24999999537387657  1.0000
  Sn  Sn2       1.0  0.7500001210344444  0.7500001292130887  0.7499999680827748  1.0000
  B   B1        1.0  3.0132617138363747e-07  0.9999999946152236  0.9999995809032526  1.0000
  Br  Br1       1.0  0.23655036841654872  0.23655048745125148  0.7634495579897339  1.0000
  Br  Br2       1.0  0.7634494299133192  0.7634495843173495  0.23655039919158682  1.0000
  Br  Br3       1.0  0.763449486603531  0.2365504736830207  0.23655050104002637  1.0000
  Br  Br4       1.0  0.23655014005357775  0.7634496968061991  0.7634497871921593  1.0000
  Br  Br5       1.0  0.23655036296990045  0.76344954977856  0.236550502357212  1.0000
  Br  Br6       1.0  0.763449684179088  0.2365502527520158  0.7634497185730632  1.0000
