data_image0
_chemical_formula_structural       Sn2BCl6
_chemical_formula_sum              "Sn2 B1 Cl6"
_cell_length_a       6.446146945154409
_cell_length_b       6.4461468510511954
_cell_length_c       6.446146642274868
_cell_angle_alpha    59.99999768902955
_cell_angle_beta     59.99999907644181
_cell_angle_gamma    59.99999315530488

_space_group_name_H-M_alt    "P 1"
_space_group_IT_number       1

loop_
  _space_group_symop_operation_xyz
  'x, y, z'

loop_
  _atom_site_type_symbol
  _atom_site_label
  _atom_site_symmetry_multiplicity
  _atom_site_fract_x
  _atom_site_fract_y
  _atom_site_fract_z
  _atom_site_occupancy
  Sn  Sn1       1.0  0.2499999928070556  0.25000008937882023  0.24999990887564427  1.0000
  Sn  Sn2       1.0  0.7499999807962783  0.7499999869417332  0.7499999327432666  1.0000
  B   B1        1.0  0.9999998891346772  2.0899614457981385e-07  0.9999979450850888  1.0000
  Cl  Cl1       1.0  0.22659846738949696  0.22659851164345182  0.7734016971118604  1.0000
  Cl  Cl2       1.0  0.7734014916506461  0.7734014202797984  0.22659865370138546  1.0000
  Cl  Cl3       1.0  0.7734013732744673  0.226598621649273  0.2265988559656298  1.0000
  Cl  Cl4       1.0  0.22659809135625925  0.7734018745634064  0.7734020168294679  1.0000
  Cl  Cl5       1.0  0.2265987555182793  0.7734012235222197  0.22659895479961034  1.0000
  Cl  Cl6       1.0  0.7734019866043866  0.2265980358135792  0.7734020466141466  1.0000
