data_image0
_chemical_formula_structural       Sn2BF6
_chemical_formula_sum              "Sn2 B1 F6"
_cell_length_a       5.67085012730792
_cell_length_b       5.670849962335232
_cell_length_c       5.670850018460355
_cell_angle_alpha    59.99999995473568
_cell_angle_beta     59.99999778712851
_cell_angle_gamma    59.99999910334414

_space_group_name_H-M_alt    "P 1"
_space_group_IT_number       1

loop_
  _space_group_symop_operation_xyz
  'x, y, z'

loop_
  _atom_site_type_symbol
  _atom_site_label
  _atom_site_symmetry_multiplicity
  _atom_site_fract_x
  _atom_site_fract_y
  _atom_site_fract_z
  _atom_site_occupancy
  Sn  Sn1       1.0  0.24999997375936892  0.25000000051489174  0.25000002931193743  1.0000
  Sn  Sn2       1.0  0.7500000176783926  0.7500000361001968  0.7500000101140784  1.0000
  B   B1        1.0  7.217049098482311e-08  9.502768476109557e-08  0.999999897003466  1.0000
  F   F1        1.0  0.20784359892695245  0.20784365740537478  0.7921563151731019  1.0000
  F   F2        1.0  0.792156364191056  0.7921562625848256  0.20784365212610106  1.0000
  F   F3        1.0  0.7921563483258843  0.20784365316775755  0.20784351526285608  1.0000
  F   F4        1.0  0.20784362320516406  0.7921562171488802  0.7921564709032038  1.0000
  F   F5        1.0  0.2078437151304658  0.7921562543463146  0.2078437249601396  1.0000
  F   F6        1.0  0.7921562892444186  0.20784378010905627  0.7921564818907721  1.0000
