data_image0
_chemical_formula_structural       Sn2BiI6
_chemical_formula_sum              "Sn2 Bi1 I6"
_cell_length_a       8.055965982836184
_cell_length_b       8.055966142687007
_cell_length_c       8.055965873594195
_cell_angle_alpha    59.99999960805408
_cell_angle_beta     60.00000070499349
_cell_angle_gamma    59.99999855100224

_space_group_name_H-M_alt    "P 1"
_space_group_IT_number       1

loop_
  _space_group_symop_operation_xyz
  'x, y, z'

loop_
  _atom_site_type_symbol
  _atom_site_label
  _atom_site_symmetry_multiplicity
  _atom_site_fract_x
  _atom_site_fract_y
  _atom_site_fract_z
  _atom_site_occupancy
  Sn  Sn1       1.0  0.2500000296770856  0.25000000481746093  0.24999994977366422  1.0000
  Sn  Sn2       1.0  0.7499999638952174  0.7500000372568145  0.7500000568926225  1.0000
  Bi  Bi1       1.0  3.5500837079902576e-08  0.9999999923985228  0.999999938880309  1.0000
  I   I1        1.0  0.2655937520318  0.265593740670996  0.7344062569190968  1.0000
  I   I2        1.0  0.734406244104165  0.7344062421117568  0.2655937483195353  1.0000
  I   I3        1.0  0.7344062822208498  0.2655937312869899  0.2655937127373972  1.0000
  I   I4        1.0  0.26559368902651076  0.7344062788610809  0.7344063384328887  1.0000
  I   I5        1.0  0.26559371865961456  0.7344062766286849  0.265593698256624  1.0000
  I   I6        1.0  0.7344062843102215  0.2655936985525902  0.7344063086071274  1.0000
