data_image0
_chemical_formula_structural       Sn2GaCl6
_chemical_formula_sum              "Sn2 Ga1 Cl6"
_cell_length_a       6.685344085174577
_cell_length_b       6.685344077504884
_cell_length_c       6.685343892947797
_cell_angle_alpha    60.000000271056116
_cell_angle_beta     59.99999916086199
_cell_angle_gamma    60.000000116957935

_space_group_name_H-M_alt    "P 1"
_space_group_IT_number       1

loop_
  _space_group_symop_operation_xyz
  'x, y, z'

loop_
  _atom_site_type_symbol
  _atom_site_label
  _atom_site_symmetry_multiplicity
  _atom_site_fract_x
  _atom_site_fract_y
  _atom_site_fract_z
  _atom_site_occupancy
  Sn  Sn1       1.0  0.25000009265848644  0.24999996687778853  0.2500000080461624  1.0000
  Sn  Sn2       1.0  0.7500002882159817  0.7499999372730614  0.7499999992025685  1.0000
  Ga  Ga1       1.0  3.192799618555716e-08  0.9999999560323651  3.2944387698111474e-08  1.0000
  Cl  Cl1       1.0  0.24856121171665652  0.24856130896352055  0.7514387077250589  1.0000
  Cl  Cl2       1.0  0.7514387165204564  0.7514387820497773  0.24856122150201046  1.0000
  Cl  Cl3       1.0  0.7514386776840128  0.24856127508476863  0.24856124112368835  1.0000
  Cl  Cl4       1.0  0.24856113519815273  0.7514387060094414  0.7514388441188722  1.0000
  Cl  Cl5       1.0  0.24856120378017538  0.7514387813795496  0.24856120087135689  1.0000
  Cl  Cl6       1.0  0.7514386547757786  0.24856128032199146  0.7514387479359842  1.0000
