data_image0
_chemical_formula_structural       Sn2GaSe6
_chemical_formula_sum              "Sn2 Ga1 Se6"
_cell_length_a       6.590817573783859
_cell_length_b       6.59081675654288
_cell_length_c       6.590817011774928
_cell_angle_alpha    59.999999682540526
_cell_angle_beta     60.00000130236615
_cell_angle_gamma    60.00000004496957

_space_group_name_H-M_alt    "P 1"
_space_group_IT_number       1

loop_
  _space_group_symop_operation_xyz
  'x, y, z'

loop_
  _atom_site_type_symbol
  _atom_site_label
  _atom_site_symmetry_multiplicity
  _atom_site_fract_x
  _atom_site_fract_y
  _atom_site_fract_z
  _atom_site_occupancy
  Sn  Sn1       1.0  0.2499998878433005  0.2500000160993928  0.2500000369835227  1.0000
  Sn  Sn2       1.0  0.7500000895656714  0.7499998791965614  0.7500000962781785  1.0000
  Ga  Ga1       1.0  0.9999999754175228  9.47712419746962e-08  0.9999999724919315  1.0000
  Se  Se1       1.0  0.2757615485079076  0.2757616156621861  0.7242385120768986  1.0000
  Se  Se2       1.0  0.7242385003588635  0.7242383911293504  0.27576159798492805  1.0000
  Se  Se3       1.0  0.724238399415244  0.2757615721120675  0.2757615653954296  1.0000
  Se  Se4       1.0  0.2757616493999624  0.7242383454830005  0.7242382888724227  1.0000
  Se  Se5       1.0  0.2757615995554212  0.7242384104831231  0.2757616167598387  1.0000
  Se  Se6       1.0  0.7242383521900833  0.27576166692227494  0.7242383168978701  1.0000
