data_image0
_chemical_formula_structural       Sn2GaBr6
_chemical_formula_sum              "Sn2 Ga1 Br6"
_cell_length_a       7.078519914893273
_cell_length_b       7.078519929646471
_cell_length_c       7.0785198871979595
_cell_angle_alpha    60.00000012409626
_cell_angle_beta     60.000000190424025
_cell_angle_gamma    59.999999932794964

_space_group_name_H-M_alt    "P 1"
_space_group_IT_number       1

loop_
  _space_group_symop_operation_xyz
  'x, y, z'

loop_
  _atom_site_type_symbol
  _atom_site_label
  _atom_site_symmetry_multiplicity
  _atom_site_fract_x
  _atom_site_fract_y
  _atom_site_fract_z
  _atom_site_occupancy
  Sn  Sn1       1.0  0.24999999715409024  0.2499999917913595  0.25000000640647263  1.0000
  Sn  Sn2       1.0  0.750000009867096  0.750000008248398  0.7499999865162219  1.0000
  Ga  Ga1       1.0  1.0743222052724013e-08  6.920909338745685e-09  0.9999999869297601  1.0000
  Br  Br1       1.0  0.2524565681686665  0.25245657494719537  0.7475434273998586  1.0000
  Br  Br2       1.0  0.7475434248467498  0.7475434181716528  0.2524565816370745  1.0000
  Br  Br3       1.0  0.747543429161674  0.252456558543619  0.25245657281874717  1.0000
  Br  Br4       1.0  0.2524565620245616  0.7475434449565933  0.7475434361802685  1.0000
  Br  Br5       1.0  0.2524565626967496  0.7475434420271231  0.2524565595651425  1.0000
  Br  Br6       1.0  0.7475434351135354  0.2524565562824069  0.747543441653566  1.0000
