data_image0
_chemical_formula_structural       Sn2GaI6
_chemical_formula_sum              "Sn2 Ga1 I6"
_cell_length_a       7.656881908396768
_cell_length_b       7.656881820470476
_cell_length_c       7.656881953997184
_cell_angle_alpha    59.99999978843679
_cell_angle_beta     59.99999950969483
_cell_angle_gamma    59.99999872485456

_space_group_name_H-M_alt    "P 1"
_space_group_IT_number       1

loop_
  _space_group_symop_operation_xyz
  'x, y, z'

loop_
  _atom_site_type_symbol
  _atom_site_label
  _atom_site_symmetry_multiplicity
  _atom_site_fract_x
  _atom_site_fract_y
  _atom_site_fract_z
  _atom_site_occupancy
  Sn  Sn1       1.0  0.25000004003192117  0.2500000566374377  0.24999996655952075  1.0000
  Sn  Sn2       1.0  0.7500000475602115  0.7499999667713964  0.7500000505769426  1.0000
  Ga  Ga1       1.0  1.364828574402299e-08  2.239348696925292e-08  1.2017450609190398e-08  1.0000
  I   I1        1.0  0.25437918915396845  0.2543792719424077  0.745620772986252  1.0000
  I   I2        1.0  0.7456207065805484  0.7456207162766627  0.2543792623348324  1.0000
  I   I3        1.0  0.7456207746102206  0.25437926725333193  0.2543791868744869  1.0000
  I   I4        1.0  0.25437921080003156  0.7456207369610852  0.7456207485945286  1.0000
  I   I5        1.0  0.25437927238305164  0.7456207103892853  0.25437924106745896  1.0000
  I   I6        1.0  0.7456207470277396  0.2543792506376927  0.7456207590716804  1.0000
