data_image0
_chemical_formula_structural       Sn2GaTe6
_chemical_formula_sum              "Sn2 Ga1 Te6"
_cell_length_a       7.2540027050362665
_cell_length_b       7.254002733602343
_cell_length_c       7.2540026830958
_cell_angle_alpha    59.99999998640456
_cell_angle_beta     60.00000004073331
_cell_angle_gamma    60.00000002481603

_space_group_name_H-M_alt    "P 1"
_space_group_IT_number       1

loop_
  _space_group_symop_operation_xyz
  'x, y, z'

loop_
  _atom_site_type_symbol
  _atom_site_label
  _atom_site_symmetry_multiplicity
  _atom_site_fract_x
  _atom_site_fract_y
  _atom_site_fract_z
  _atom_site_occupancy
  Sn  Sn1       1.0  0.24999999808195025  0.2500000006910076  0.24999999982721058  1.0000
  Sn  Sn2       1.0  0.7500000055816509  0.7499999919427959  0.7499999850933524  1.0000
  Ga  Ga1       1.0  2.4442806089989214e-09  0.9999999831162888  0.9999999934342227  1.0000
  Te  Te1       1.0  0.2684181032603227  0.26841811071648736  0.7315818947267885  1.0000
  Te  Te2       1.0  0.7315818994542498  0.7315819038661406  0.268418114157608  1.0000
  Te  Te3       1.0  0.7315818858512164  0.2684181178467634  0.2684181084752714  1.0000
  Te  Te4       1.0  0.26841810843806757  0.7315818933591224  0.7315818994173942  1.0000
  Te  Te5       1.0  0.26841810636114893  0.7315818860941352  0.26841810655772114  1.0000
  Te  Te6       1.0  0.7315818950512907  0.2684181132931528  0.7315818912757223  1.0000
