data_image0
_chemical_formula_structural       Sn2IrCl6
_chemical_formula_sum              "Sn2 Ir1 Cl6"
_cell_length_a       6.737824408353301
_cell_length_b       6.737824670574652
_cell_length_c       6.737824428806045
_cell_angle_alpha    59.99999989214655
_cell_angle_beta     59.99999926958544
_cell_angle_gamma    59.999998980386145

_space_group_name_H-M_alt    "P 1"
_space_group_IT_number       1

loop_
  _space_group_symop_operation_xyz
  'x, y, z'

loop_
  _atom_site_type_symbol
  _atom_site_label
  _atom_site_symmetry_multiplicity
  _atom_site_fract_x
  _atom_site_fract_y
  _atom_site_fract_z
  _atom_site_occupancy
  Sn  Sn1       1.0  0.25000014809804616  0.24999988781622845  0.25000001782494047  1.0000
  Sn  Sn2       1.0  0.7499998049163753  0.750000090611853  0.7500001046682501  1.0000
  Ir  Ir1       1.0  8.496023918329305e-08  3.8172025254827464e-08  0.9999999399180256  1.0000
  Cl  Cl1       1.0  0.24554559278891191  0.2455455879460945  0.7544543305456823  1.0000
  Cl  Cl2       1.0  0.7544544073255912  0.7544545268106552  0.2455455132291496  1.0000
  Cl  Cl3       1.0  0.754454416524502  0.2455455624980691  0.24554556346139178  1.0000
  Cl  Cl4       1.0  0.24554557377678454  0.7544544377425992  0.7544544478533501  1.0000
  Cl  Cl5       1.0  0.24554559010462512  0.7544543367558908  0.24554564486761926  1.0000
  Cl  Cl6       1.0  0.7544543838402809  0.24554553260925774  0.7544544326422812  1.0000
