data_image0
_chemical_formula_structural       Sn2IrF6
_chemical_formula_sum              "Sn2 Ir1 F6"
_cell_length_a       5.775521429432705
_cell_length_b       5.775521540300931
_cell_length_c       5.775521443275552
_cell_angle_alpha    59.99999958483368
_cell_angle_beta     60.00000020677808
_cell_angle_gamma    59.99999999832893

_space_group_name_H-M_alt    "P 1"
_space_group_IT_number       1

loop_
  _space_group_symop_operation_xyz
  'x, y, z'

loop_
  _atom_site_type_symbol
  _atom_site_label
  _atom_site_symmetry_multiplicity
  _atom_site_fract_x
  _atom_site_fract_y
  _atom_site_fract_z
  _atom_site_occupancy
  Sn  Sn1       1.0  0.25000003301873147  0.24999998845200141  0.2499999651783855  1.0000
  Sn  Sn2       1.0  0.7499999558930498  0.7500000289733684  0.7500000426576604  1.0000
  Ir  Ir1       1.0  0.9999999511886399  8.482315827229511e-09  0.9999999872670595  1.0000
  F   F1        1.0  0.2505531850468945  0.2505531990145469  0.7494467801337052  1.0000
  F   F2        1.0  0.7494468283832247  0.7494467208641973  0.2505532053473416  1.0000
  F   F3        1.0  0.749446764390915  0.2505533008708358  0.2505532899244348  1.0000
  F   F4        1.0  0.25055327098989993  0.7494466911075868  0.7494467974357284  1.0000
  F   F5        1.0  0.2505532699845299  0.7494467437905326  0.25055327629968277  1.0000
  F   F6        1.0  0.7494467560650235  0.250553318166993  0.7494466733869448  1.0000
