data_image0
_chemical_formula_structural       Sn2IrBr6
_chemical_formula_sum              "Sn2 Ir1 Br6"
_cell_length_a       7.164092260180504
_cell_length_b       7.164092090384988
_cell_length_c       7.1640921543216285
_cell_angle_alpha    60.0000003038856
_cell_angle_beta     59.999999841615
_cell_angle_gamma    59.99999935230538

_space_group_name_H-M_alt    "P 1"
_space_group_IT_number       1

loop_
  _space_group_symop_operation_xyz
  'x, y, z'

loop_
  _atom_site_type_symbol
  _atom_site_label
  _atom_site_symmetry_multiplicity
  _atom_site_fract_x
  _atom_site_fract_y
  _atom_site_fract_z
  _atom_site_occupancy
  Sn  Sn1       1.0  0.2500000424825364  0.2499999739280459  0.2499999893084886  1.0000
  Sn  Sn2       1.0  0.7500000095243643  0.7500000482916146  0.7500000320300144  1.0000
  Ir  Ir1       1.0  3.415765910990406e-08  0.9999999555514277  5.2604365522500426e-08  1.0000
  Br  Br1       1.0  0.2441111153308732  0.244111070967672  0.7558888949920027  1.0000
  Br  Br2       1.0  0.7558889179044134  0.7558889495424271  0.24411103329416767  1.0000
  Br  Br3       1.0  0.7558889254433828  0.24411104587749385  0.24411109870300246  1.0000
  Br  Br4       1.0  0.24411102741476956  0.7558889353127148  0.7558889145569854  1.0000
  Br  Br5       1.0  0.2441110527924877  0.7558889562287372  0.24411109165243242  1.0000
  Br  Br6       1.0  0.7558888723551616  0.24411106941004398  0.7558888895090664  1.0000
