data_image0
_chemical_formula_structural       Sn2MoF6
_chemical_formula_sum              "Sn2 Mo1 F6"
_cell_length_a       5.855942556516057
_cell_length_b       5.855942485272939
_cell_length_c       5.855942594147362
_cell_angle_alpha    59.9999983869476
_cell_angle_beta     60.000000427504155
_cell_angle_gamma    59.99999962293352

_space_group_name_H-M_alt    "P 1"
_space_group_IT_number       1

loop_
  _space_group_symop_operation_xyz
  'x, y, z'

loop_
  _atom_site_type_symbol
  _atom_site_label
  _atom_site_symmetry_multiplicity
  _atom_site_fract_x
  _atom_site_fract_y
  _atom_site_fract_z
  _atom_site_occupancy
  Sn  Sn1       1.0  0.2500000154876154  0.25000001301078817  0.2499999992355497  1.0000
  Sn  Sn2       1.0  0.7500000056521828  0.7500000076605182  0.7499999364608843  1.0000
  Mo  Mo1       1.0  6.612684360963976e-09  0.9999999979085433  1.1400722293603353e-08  1.0000
  F   F1        1.0  0.25172419918887895  0.25172420707168575  0.748275838172195  1.0000
  F   F2        1.0  0.7482758038660094  0.748275796867967  0.2517242378845459  1.0000
  F   F3        1.0  0.7482757872378277  0.2517242199045916  0.25172417051443685  1.0000
  F   F4        1.0  0.25172423764747864  0.7482757422059331  0.7482757908819675  1.0000
  F   F5        1.0  0.2517241881931672  0.7482757803967303  0.25172419730471945  1.0000
  F   F6        1.0  0.7482757771574591  0.25172423609166233  0.7482757974080965  1.0000
