data_image0
_chemical_formula_structural       Sn2NF6
_chemical_formula_sum              "Sn2 N1 F6"
_cell_length_a       5.2911946792616105
_cell_length_b       5.2911949535967535
_cell_length_c       5.291194859891427
_cell_angle_alpha    59.99999916203933
_cell_angle_beta     60.00000087905423
_cell_angle_gamma    60.00000073316588

_space_group_name_H-M_alt    "P 1"
_space_group_IT_number       1

loop_
  _space_group_symop_operation_xyz
  'x, y, z'

loop_
  _atom_site_type_symbol
  _atom_site_label
  _atom_site_symmetry_multiplicity
  _atom_site_fract_x
  _atom_site_fract_y
  _atom_site_fract_z
  _atom_site_occupancy
  Sn  Sn1       1.0  0.25000002211632694  0.24999989983151957  0.24999995131392147  1.0000
  Sn  Sn2       1.0  0.7500000608572073  0.7499998730959166  0.7499999910090477  1.0000
  N   N1        1.0  0.9999999606730694  7.869928507093469e-08  0.9999999595245662  1.0000
  F   F1        1.0  0.23348371646738914  0.23348371117573186  0.7665162891203302  1.0000
  F   F2        1.0  0.7665162504429075  0.7665163117376634  0.2334837393257891  1.0000
  F   F3        1.0  0.7665163130474226  0.23348368135987485  0.2334837188628264  1.0000
  F   F4        1.0  0.23348371523219724  0.7665163276654111  0.7665163085218744  1.0000
  F   F5        1.0  0.2334836810949774  0.7665163518873828  0.233483708428571  1.0000
  F   F6        1.0  0.7665162674075093  0.23348375898403495  0.7665163513900709  1.0000
