data_image0
_chemical_formula_structural       Sn2NO6
_chemical_formula_sum              "Sn2 N1 O6"
_cell_length_a       5.03262004386424
_cell_length_b       5.032619676633354
_cell_length_c       5.032619826899061
_cell_angle_alpha    59.999995940454134
_cell_angle_beta     59.999998784257194
_cell_angle_gamma    59.9999963268633

_space_group_name_H-M_alt    "P 1"
_space_group_IT_number       1

loop_
  _space_group_symop_operation_xyz
  'x, y, z'

loop_
  _atom_site_type_symbol
  _atom_site_label
  _atom_site_symmetry_multiplicity
  _atom_site_fract_x
  _atom_site_fract_y
  _atom_site_fract_z
  _atom_site_occupancy
  Sn  Sn1       1.0  0.24999997015819017  0.2500000955074675  0.24999981659383547  1.0000
  Sn  Sn2       1.0  0.7499999107331521  0.7500000723644378  0.7499998865792853  1.0000
  N   N1        1.0  9.685533611783789e-08  0.9999998539832065  2.173232844137984e-07  1.0000
  O   O1        1.0  0.2390457289317299  0.2390455921413256  0.7609544151999044  1.0000
  O   O2        1.0  0.7609544388830398  0.7609543688734545  0.239045542021487  1.0000
  O   O3        1.0  0.7609544324432054  0.23904550962999382  0.23904548511533696  1.0000
  O   O4        1.0  0.2390457325006325  0.7609542810318646  0.7609546342253778  1.0000
  O   O5        1.0  0.23904545610000758  0.7609544911188433  0.2390454391187962  1.0000
  O   O6        1.0  0.7609543313916334  0.23904568162028308  0.7609545229205236  1.0000
