data_image0
_chemical_formula_structural       Sn2PCl6
_chemical_formula_sum              "Sn2 P1 Cl6"
_cell_length_a       6.793283639859811
_cell_length_b       6.793283453546254
_cell_length_c       6.793283532806646
_cell_angle_alpha    59.999999081814366
_cell_angle_beta     59.99999797490494
_cell_angle_gamma    60.00000249545665

_space_group_name_H-M_alt    "P 1"
_space_group_IT_number       1

loop_
  _space_group_symop_operation_xyz
  'x, y, z'

loop_
  _atom_site_type_symbol
  _atom_site_label
  _atom_site_symmetry_multiplicity
  _atom_site_fract_x
  _atom_site_fract_y
  _atom_site_fract_z
  _atom_site_occupancy
  Sn  Sn1       1.0  0.24999996175967698  0.24999985515398376  0.25000008625595815  1.0000
  Sn  Sn2       1.0  0.7499999851144984  0.7499998268789962  0.750000038396476  1.0000
  P   P1        1.0  0.9999999051723603  7.031216574815956e-08  5.494696219509924e-08  1.0000
  Cl  Cl1       1.0  0.24869076614345562  0.2486909742207128  0.7513090853454706  1.0000
  Cl  Cl2       1.0  0.7513092422402895  0.7513091963917051  0.24869083197639752  1.0000
  Cl  Cl3       1.0  0.7513091604243965  0.248690893699995  0.24869088513399265  1.0000
  Cl  Cl4       1.0  0.24869091172869237  0.7513091416967149  0.7513091061841538  1.0000
  Cl  Cl5       1.0  0.24869091432399162  0.7513091471044848  0.2486908935489322  1.0000
  Cl  Cl6       1.0  0.7513091416209057  0.24869090632098567  0.7513090173686519  1.0000
