data_image0
_chemical_formula_structural       Sn2PF6
_chemical_formula_sum              "Sn2 P1 F6"
_cell_length_a       6.127625025470211
_cell_length_b       6.127625234444962
_cell_length_c       6.127624836594263
_cell_angle_alpha    60.00000374167321
_cell_angle_beta     60.00000529492537
_cell_angle_gamma    60.000002075092276

_space_group_name_H-M_alt    "P 1"
_space_group_IT_number       1

loop_
  _space_group_symop_operation_xyz
  'x, y, z'

loop_
  _atom_site_type_symbol
  _atom_site_label
  _atom_site_symmetry_multiplicity
  _atom_site_fract_x
  _atom_site_fract_y
  _atom_site_fract_z
  _atom_site_occupancy
  Sn  Sn1       1.0  0.250000096903974  0.2500000679000134  0.2500000072987637  1.0000
  Sn  Sn2       1.0  0.7500001465329547  0.7499997599827098  0.7500000008773665  1.0000
  P   P1        1.0  1.5611039280313075e-09  0.9999999840101863  3.332561389323312e-08  1.0000
  F   F1        1.0  0.19048465732463415  0.19048477167535602  0.8095152308588083  1.0000
  F   F2        1.0  0.8095152529850103  0.8095152980533048  0.19048474625616385  1.0000
  F   F3        1.0  0.8095151381424034  0.19048479434488702  0.19048476106298448  1.0000
  F   F4        1.0  0.19048476828409713  0.8095152813799539  0.8095152296830529  1.0000
  F   F5        1.0  0.19048470395983022  0.8095153321623205  0.19048477503491487  1.0000
  F   F6        1.0  0.8095151822900105  0.19048474755997435  0.809515254807845  1.0000
