data_image0
_chemical_formula_structural       Sn2PI6
_chemical_formula_sum              "Sn2 P1 I6"
_cell_length_a       7.64376037664591
_cell_length_b       7.643760300107073
_cell_length_c       7.643760377855834
_cell_angle_alpha    60.000000842186815
_cell_angle_beta     60.00000054726417
_cell_angle_gamma    60.00000005865558

_space_group_name_H-M_alt    "P 1"
_space_group_IT_number       1

loop_
  _space_group_symop_operation_xyz
  'x, y, z'

loop_
  _atom_site_type_symbol
  _atom_site_label
  _atom_site_symmetry_multiplicity
  _atom_site_fract_x
  _atom_site_fract_y
  _atom_site_fract_z
  _atom_site_occupancy
  Sn  Sn1       1.0  0.24999996471185107  0.25000012214170475  0.24999994036043652  1.0000
  Sn  Sn2       1.0  0.7499999927020917  0.7499998713204191  0.7500002116641048  1.0000
  P   P1        1.0  2.0630653243214966e-08  0.9999999743635106  0.9999999881120952  1.0000
  I   I1        1.0  0.25546978552795446  0.25546982013479963  0.7445302034080173  1.0000
  I   I2        1.0  0.7445302276882022  0.7445301781341639  0.2554697573964349  1.0000
  I   I3        1.0  0.7445302102738696  0.2554698446221941  0.25546973163634396  1.0000
  I   I4        1.0  0.255469777596428  0.7445301888969424  0.7445302359902611  1.0000
  I   I5        1.0  0.25546981011323816  0.7445302010084588  0.2554697257479526  1.0000
  I   I6        1.0  0.7445302095879545  0.25546980046506557  0.7445302079713392  1.0000
