data_image0
_chemical_formula_structural       Sn2RuCl6
_chemical_formula_sum              "Sn2 Ru1 Cl6"
_cell_length_a       6.6870627934071
_cell_length_b       6.687062730453477
_cell_length_c       6.687062767285151
_cell_angle_alpha    59.999999584342525
_cell_angle_beta     59.99999928491315
_cell_angle_gamma    59.99999907575536

_space_group_name_H-M_alt    "P 1"
_space_group_IT_number       1

loop_
  _space_group_symop_operation_xyz
  'x, y, z'

loop_
  _atom_site_type_symbol
  _atom_site_label
  _atom_site_symmetry_multiplicity
  _atom_site_fract_x
  _atom_site_fract_y
  _atom_site_fract_z
  _atom_site_occupancy
  Sn  Sn1       1.0  0.2500000204719712  0.2500000219365261  0.24999996724217977  1.0000
  Sn  Sn2       1.0  0.7500000000722645  0.7500000529889808  0.7500000434884042  1.0000
  Ru  Ru1       1.0  3.685465970966385e-08  2.93042232646433e-08  0.9999998966355891  1.0000
  Cl  Cl1       1.0  0.24818093450634465  0.2481809295773515  0.7518190842877499  1.0000
  Cl  Cl2       1.0  0.7518190100272446  0.7518190262997477  0.24818096116451716  1.0000
  Cl  Cl3       1.0  0.751819105394083  0.24818091043593712  0.2481808913983637  1.0000
  Cl  Cl4       1.0  0.24818088056396426  0.7518190765768993  0.7518191357189039  1.0000
  Cl  Cl5       1.0  0.24818091378942408  0.7518190726399441  0.24818092038713171  1.0000
  Cl  Cl6       1.0  0.751819101035891  0.24818087957412685  0.7518191082004597  1.0000
