data_image0
_chemical_formula_structural       Sn2RuBr6
_chemical_formula_sum              "Sn2 Ru1 Br6"
_cell_length_a       7.113194939837267
_cell_length_b       7.113194892883315
_cell_length_c       7.113195020132075
_cell_angle_alpha    59.99999861082614
_cell_angle_beta     59.99999982436263
_cell_angle_gamma    60.0000001710329

_space_group_name_H-M_alt    "P 1"
_space_group_IT_number       1

loop_
  _space_group_symop_operation_xyz
  'x, y, z'

loop_
  _atom_site_type_symbol
  _atom_site_label
  _atom_site_symmetry_multiplicity
  _atom_site_fract_x
  _atom_site_fract_y
  _atom_site_fract_z
  _atom_site_occupancy
  Sn  Sn1       1.0  0.25000003282384353  0.24999994472387907  0.2500000705349543  1.0000
  Sn  Sn2       1.0  0.7500000264685356  0.750000006350934  0.749999950641008  1.0000
  Ru  Ru1       1.0  1.952524409486057e-09  0.999999925962903  2.3389744568722747e-08  1.0000
  Br  Br1       1.0  0.2459311149899421  0.24593112435921335  0.7540688623223016  1.0000
  Br  Br2       1.0  0.7540689238687558  0.7540689902859307  0.24593107603863057  1.0000
  Br  Br3       1.0  0.7540688635214978  0.2459310964719441  0.2459311117922218  1.0000
  Br  Br4       1.0  0.24593109091046284  0.7540688769861764  0.7540689351580777  1.0000
  Br  Br5       1.0  0.24593103770328803  0.7540689215605197  0.2459310661601624  1.0000
  Br  Br6       1.0  0.7540689035113654  0.24593112076931933  0.7540689009469242  1.0000
