data_image0
_chemical_formula_structural       Sn2RhCl6
_chemical_formula_sum              "Sn2 Rh1 Cl6"
_cell_length_a       6.69194870582094
_cell_length_b       6.691948444694723
_cell_length_c       6.691948610364373
_cell_angle_alpha    59.999999503204236
_cell_angle_beta     60.000000700916004
_cell_angle_gamma    60.00000153960559

_space_group_name_H-M_alt    "P 1"
_space_group_IT_number       1

loop_
  _space_group_symop_operation_xyz
  'x, y, z'

loop_
  _atom_site_type_symbol
  _atom_site_label
  _atom_site_symmetry_multiplicity
  _atom_site_fract_x
  _atom_site_fract_y
  _atom_site_fract_z
  _atom_site_occupancy
  Sn  Sn1       1.0  0.24999996294088767  0.24999992146340375  0.2500001133552057  1.0000
  Sn  Sn2       1.0  0.7500001308959705  0.7499999492380729  0.7499998441760864  1.0000
  Rh  Rh1       1.0  0.9999999890548565  0.9999999707171708  0.9999999633293302  1.0000
  Cl  Cl1       1.0  0.24686114161465064  0.24686116042256645  0.7531388828306138  1.0000
  Cl  Cl2       1.0  0.7531388238168718  0.753138898787117  0.2468611970712147  1.0000
  Cl  Cl3       1.0  0.7531387896412886  0.24686119131454518  0.2468611995506091  1.0000
  Cl  Cl4       1.0  0.24686116836485764  0.7531388953477897  0.7531387747002664  1.0000
  Cl  Cl5       1.0  0.24686113777674049  0.7531388024282688  0.24686122177653805  1.0000
  Cl  Cl6       1.0  0.7531388579304288  0.24686120736664177  0.7531387884952014  1.0000
