data_image0
_chemical_formula_structural       Sn2RhBr6
_chemical_formula_sum              "Sn2 Rh1 Br6"
_cell_length_a       7.09880881911249
_cell_length_b       7.098808820391127
_cell_length_c       7.098808761691017
_cell_angle_alpha    60.00000105858419
_cell_angle_beta     60.00000016366826
_cell_angle_gamma    60.00000084729723

_space_group_name_H-M_alt    "P 1"
_space_group_IT_number       1

loop_
  _space_group_symop_operation_xyz
  'x, y, z'

loop_
  _atom_site_type_symbol
  _atom_site_label
  _atom_site_symmetry_multiplicity
  _atom_site_fract_x
  _atom_site_fract_y
  _atom_site_fract_z
  _atom_site_occupancy
  Sn  Sn1       1.0  0.250000010542  0.2499999569249433  0.2500000117995983  1.0000
  Sn  Sn2       1.0  0.7500000087518621  0.7500000467536156  0.750000008150519  1.0000
  Rh  Rh1       1.0  0.9999999487687453  7.0736569143886e-08  0.9999998592394472  1.0000
  Br  Br1       1.0  0.24550526533198813  0.24550518043563185  0.7544947710983295  1.0000
  Br  Br2       1.0  0.7544947909961898  0.7544948146165155  0.2455051712569181  1.0000
  Br  Br3       1.0  0.7544947651841722  0.24550521596207237  0.2455052010434578  1.0000
  Br  Br4       1.0  0.24550515580536622  0.7544948532772104  0.7544948747216972  1.0000
  Br  Br5       1.0  0.24550526831307515  0.7544947174261587  0.24550523174893268  1.0000
  Br  Br6       1.0  0.7544947828252304  0.24550515168038825  0.75449487196477  1.0000
