data_image0
_chemical_formula_structural       Sn2RuI6
_chemical_formula_sum              "Sn2 Ru1 I6"
_cell_length_a       7.558968761848104
_cell_length_b       7.558968674017828
_cell_length_c       7.558968590667329
_cell_angle_alpha    60.00000020788728
_cell_angle_beta     60.000000734324054
_cell_angle_gamma    60.000001013657275

_space_group_name_H-M_alt    "P 1"
_space_group_IT_number       1

loop_
  _space_group_symop_operation_xyz
  'x, y, z'

loop_
  _atom_site_type_symbol
  _atom_site_label
  _atom_site_symmetry_multiplicity
  _atom_site_fract_x
  _atom_site_fract_y
  _atom_site_fract_z
  _atom_site_occupancy
  Sn  Sn1       1.0  0.2500000220336651  0.2499999865064993  0.24999998940822662  1.0000
  Sn  Sn2       1.0  0.7499999268095849  0.7500001345069203  0.7499999794811736  1.0000
  Ru  Ru1       1.0  0.9999999981017546  1.944304709725735e-08  0.9999999859358719  1.0000
  I   I1        1.0  0.24924988001021325  0.249249788626278  0.7507501692388835  1.0000
  I   I2        1.0  0.7507501809825837  0.7507501655009885  0.24924982834175163  1.0000
  I   I3        1.0  0.7507501504302756  0.2492497978673219  0.24924986056066298  1.0000
  I   I4        1.0  0.24924985009166903  0.7507501497789281  0.7507501771105657  1.0000
  I   I5        1.0  0.2492498584113243  0.750750157123742  0.24924981052828432  1.0000
  I   I6        1.0  0.7507501363550172  0.24924979862377766  0.7507501968656112  1.0000
