data_image0
_chemical_formula_structural       Sn2RuF6
_chemical_formula_sum              "Sn2 Ru1 F6"
_cell_length_a       5.784480273025397
_cell_length_b       5.784480540634112
_cell_length_c       5.784480380294982
_cell_angle_alpha    60.000000077926806
_cell_angle_beta     60.0000024956807
_cell_angle_gamma    60.00000178191038

_space_group_name_H-M_alt    "P 1"
_space_group_IT_number       1

loop_
  _space_group_symop_operation_xyz
  'x, y, z'

loop_
  _atom_site_type_symbol
  _atom_site_label
  _atom_site_symmetry_multiplicity
  _atom_site_fract_x
  _atom_site_fract_y
  _atom_site_fract_z
  _atom_site_occupancy
  Sn  Sn1       1.0  0.25000005116106505  0.25000004545431487  0.24999998188737413  1.0000
  Sn  Sn2       1.0  0.7499999911887453  0.7499999585102102  0.7500000206537055  1.0000
  Ru  Ru1       1.0  0.9999999699358432  6.351883541142216e-09  0.9999999962972621  1.0000
  F   F1        1.0  0.2472143037992563  0.24721433376633276  0.7527856715774123  1.0000
  F   F2        1.0  0.752785643781  0.7527856850192539  0.24721432771881763  1.0000
  F   F3        1.0  0.7527857033637355  0.24721433389122557  0.24721424593713978  1.0000
  F   F4        1.0  0.24721424115128265  0.7527857060673051  0.7527857685079294  1.0000
  F   F5        1.0  0.24721429689994018  0.7527856829389227  0.24721428376265162  1.0000
  F   F6        1.0  0.7527857674496687  0.2472142490375908  0.7527857333999531  1.0000
