data_image0
_chemical_formula_structural       Sn2RhF6
_chemical_formula_sum              "Sn2 Rh1 F6"
_cell_length_a       5.72480471331425
_cell_length_b       5.724804845905438
_cell_length_c       5.724805143010411
_cell_angle_alpha    59.9999983094034
_cell_angle_beta     59.99999869400092
_cell_angle_gamma    60.00000075644109

_space_group_name_H-M_alt    "P 1"
_space_group_IT_number       1

loop_
  _space_group_symop_operation_xyz
  'x, y, z'

loop_
  _atom_site_type_symbol
  _atom_site_label
  _atom_site_symmetry_multiplicity
  _atom_site_fract_x
  _atom_site_fract_y
  _atom_site_fract_z
  _atom_site_occupancy
  Sn  Sn1       1.0  0.25000006201292213  0.24999984902167102  0.2500000517332189  1.0000
  Sn  Sn2       1.0  0.7499998767748431  0.7500000754882363  0.7500001644013395  1.0000
  Rh  Rh1       1.0  0.9999999804206394  4.278730350191802e-09  0.9999999901824715  1.0000
  F   F1        1.0  0.2491091082050908  0.2491091200505637  0.7508908998387979  1.0000
  F   F2        1.0  0.7508908997099017  0.7508908814764957  0.24910916461827617  1.0000
  F   F3        1.0  0.7508908220247791  0.2491091827463491  0.24910908017476868  1.0000
  F   F4        1.0  0.24910915701927674  0.7508908872404001  0.7508907933030627  1.0000
  F   F5        1.0  0.2491092240878266  0.7508908315602437  0.2491090433852666  1.0000
  F   F6        1.0  0.7508908635498572  0.24910918494237475  0.7508908060313858  1.0000
