data_image0
_chemical_formula_structural       Sn2RhI6
_chemical_formula_sum              "Sn2 Rh1 I6"
_cell_length_a       7.561908387330205
_cell_length_b       7.561908477547578
_cell_length_c       7.561908399299389
_cell_angle_alpha    60.0000000600999
_cell_angle_beta     59.9999996011912
_cell_angle_gamma    59.99999913710358

_space_group_name_H-M_alt    "P 1"
_space_group_IT_number       1

loop_
  _space_group_symop_operation_xyz
  'x, y, z'

loop_
  _atom_site_type_symbol
  _atom_site_label
  _atom_site_symmetry_multiplicity
  _atom_site_fract_x
  _atom_site_fract_y
  _atom_site_fract_z
  _atom_site_occupancy
  Sn  Sn1       1.0  0.24999998473472043  0.24999998117864428  0.25000003044848623  1.0000
  Sn  Sn2       1.0  0.7500000181236894  0.7499998479781143  0.7499999722780192  1.0000
  Rh  Rh1       1.0  0.9999999719741933  1.6196242613354208e-09  6.609979128252285e-08  1.0000
  I   I1        1.0  0.24868534378202764  0.2486854415533206  0.7513146009538028  1.0000
  I   I2        1.0  0.7513146139412206  0.7513146192096753  0.24868544077891455  1.0000
  I   I3        1.0  0.7513146460785312  0.24868539084523472  0.24868532552329958  1.0000
  I   I4        1.0  0.24868543527056794  0.7513146197094147  0.7513145803193527  1.0000
  I   I5        1.0  0.24868536179318873  0.7513146255182229  0.24868537966672663  1.0000
  I   I6        1.0  0.751314621595219  0.24868547735499766  0.7513146083420357  1.0000
