data_image0
_chemical_formula_structural       Sn2SbO6
_chemical_formula_sum              "Sn2 Sb1 O6"
_cell_length_a       5.52872089851322
_cell_length_b       5.5287209513023905
_cell_length_c       5.528720907180004
_cell_angle_alpha    60.000001421801116
_cell_angle_beta     60.00000045569763
_cell_angle_gamma    60.00000060974108

_space_group_name_H-M_alt    "P 1"
_space_group_IT_number       1

loop_
  _space_group_symop_operation_xyz
  'x, y, z'

loop_
  _atom_site_type_symbol
  _atom_site_label
  _atom_site_symmetry_multiplicity
  _atom_site_fract_x
  _atom_site_fract_y
  _atom_site_fract_z
  _atom_site_occupancy
  Sn  Sn1       1.0  0.25000004057854386  0.2499999856316989  0.24999989714646031  1.0000
  Sn  Sn2       1.0  0.7499999423085782  0.7500000565809389  0.750000026134057  1.0000
  Sb  Sb1       1.0  2.1645641944606966e-08  0.999999960125665  5.071528865931654e-08  1.0000
  O   O1        1.0  0.2531698502972847  0.25316987240210287  0.7468301676690642  1.0000
  O   O2        1.0  0.7468301103542107  0.7468301675952959  0.25316992157949897  1.0000
  O   O3        1.0  0.7468301118273203  0.253169920926655  0.2531698411714434  1.0000
  O   O4        1.0  0.25316987918235195  0.7468300969183338  0.7468301390675119  1.0000
  O   O5        1.0  0.25316989788867544  0.7468301334753331  0.25316986418851417  1.0000
  O   O6        1.0  0.7468300760542651  0.25316986664772895  0.7468301225923504  1.0000
