data_image0
_chemical_formula_structural       Sn2SbBr6
_chemical_formula_sum              "Sn2 Sb1 Br6"
_cell_length_a       7.354297227849085
_cell_length_b       7.354297189778891
_cell_length_c       7.354297365850661
_cell_angle_alpha    59.99999893286801
_cell_angle_beta     59.99999987997597
_cell_angle_gamma    59.999998998972785

_space_group_name_H-M_alt    "P 1"
_space_group_IT_number       1

loop_
  _space_group_symop_operation_xyz
  'x, y, z'

loop_
  _atom_site_type_symbol
  _atom_site_label
  _atom_site_symmetry_multiplicity
  _atom_site_fract_x
  _atom_site_fract_y
  _atom_site_fract_z
  _atom_site_occupancy
  Sn  Sn1       1.0  0.250000002345938  0.2499999320719549  0.25000008720939954  1.0000
  Sn  Sn2       1.0  0.7499999970130542  0.7499998828138541  0.7500000465741867  1.0000
  Sb  Sb1       1.0  1.7731007362378837e-08  3.3306918463906726e-09  0.9999999772314077  1.0000
  Br  Br1       1.0  0.2602158673884861  0.26021590919256493  0.7397840855222594  1.0000
  Br  Br2       1.0  0.7397840371900537  0.7397841005387182  0.2602159275218566  1.0000
  Br  Br3       1.0  0.7397840508412477  0.26021600834782876  0.2602158807069786  1.0000
  Br  Br4       1.0  0.2602159348410779  0.7397841396071662  0.7397840485086237  1.0000
  Br  Br5       1.0  0.2602159402654776  0.7397840454203735  0.2602158983295982  1.0000
  Br  Br6       1.0  0.739784151329484  0.2602159826297141  0.7397840446808864  1.0000
