data_image0
_chemical_formula_structural       Sn2SbI6
_chemical_formula_sum              "Sn2 Sb1 I6"
_cell_length_a       7.967902095092647
_cell_length_b       7.967901979763425
_cell_length_c       7.9679020552938145
_cell_angle_alpha    59.99999951090098
_cell_angle_beta     59.99999977703684
_cell_angle_gamma    60.00000033112116

_space_group_name_H-M_alt    "P 1"
_space_group_IT_number       1

loop_
  _space_group_symop_operation_xyz
  'x, y, z'

loop_
  _atom_site_type_symbol
  _atom_site_label
  _atom_site_symmetry_multiplicity
  _atom_site_fract_x
  _atom_site_fract_y
  _atom_site_fract_z
  _atom_site_occupancy
  Sn  Sn1       1.0  0.250000025967898  0.25000003371890966  0.2499999857023045  1.0000
  Sn  Sn2       1.0  0.7500000053437824  0.7499999797259609  0.7500000478270762  1.0000
  Sb  Sb1       1.0  4.5203701948870785e-08  0.999999960035444  3.503149214664125e-08  1.0000
  I   I1        1.0  0.26215779161095903  0.2621577942171398  0.7378422040496522  1.0000
  I   I2        1.0  0.7378422084188122  0.7378422130793371  0.26215776159743  1.0000
  I   I3        1.0  0.737842181749146  0.2621578204565323  0.2621577937393528  1.0000
  I   I4        1.0  0.2621577938202087  0.7378421776173544  0.7378422063197302  1.0000
  I   I5        1.0  0.26215779600740013  0.7378422070709644  0.2621577702218718  1.0000
  I   I6        1.0  0.7378421544861813  0.2621578140593969  0.7378421969609016  1.0000
