data_image0
_chemical_formula_structural       Sn2SbSe6
_chemical_formula_sum              "Sn2 Sb1 Se6"
_cell_length_a       6.71157404444877
_cell_length_b       6.711573893435222
_cell_length_c       6.711574079185322
_cell_angle_alpha    59.99999793363165
_cell_angle_beta     59.999999565703284
_cell_angle_gamma    59.99999951111564

_space_group_name_H-M_alt    "P 1"
_space_group_IT_number       1

loop_
  _space_group_symop_operation_xyz
  'x, y, z'

loop_
  _atom_site_type_symbol
  _atom_site_label
  _atom_site_symmetry_multiplicity
  _atom_site_fract_x
  _atom_site_fract_y
  _atom_site_fract_z
  _atom_site_occupancy
  Sn  Sn1       1.0  0.2499999932038433  0.2500000124549021  0.25000000498960323  1.0000
  Sn  Sn2       1.0  0.7499999907871137  0.7499999625468755  0.7499999708017984  1.0000
  Sb  Sb1       1.0  2.419082578518171e-08  0.9999999945255253  0.999999938493104  1.0000
  Se  Se1       1.0  0.2867642364653172  0.2867642066541285  0.713235766557564  1.0000
  Se  Se2       1.0  0.713235754807034  0.7132357774717741  0.28676426807943267  1.0000
  Se  Se3       1.0  0.7132357829777664  0.2867642413770794  0.286764229927687  1.0000
  Se  Se4       1.0  0.28676422951258707  0.7132358029680537  0.7132358131594864  1.0000
  Se  Se5       1.0  0.28676420446177997  0.7132357679618125  0.28676422919258904  1.0000
  Se  Se6       1.0  0.7132357824482825  0.286764234412342  0.7132357836017914  1.0000
