data_image0
_chemical_formula_structural       Sn2SbTe6
_chemical_formula_sum              "Sn2 Sb1 Te6"
_cell_length_a       7.454707999625758
_cell_length_b       7.45470791516027
_cell_length_c       7.454707906262275
_cell_angle_alpha    60.0000004425618
_cell_angle_beta     60.00000022085397
_cell_angle_gamma    59.99999970707716

_space_group_name_H-M_alt    "P 1"
_space_group_IT_number       1

loop_
  _space_group_symop_operation_xyz
  'x, y, z'

loop_
  _atom_site_type_symbol
  _atom_site_label
  _atom_site_symmetry_multiplicity
  _atom_site_fract_x
  _atom_site_fract_y
  _atom_site_fract_z
  _atom_site_occupancy
  Sn  Sn1       1.0  0.25000002726479825  0.24999994508685697  0.25000002855601106  1.0000
  Sn  Sn2       1.0  0.7500000060324014  0.7500000718402776  0.749999966357586  1.0000
  Sb  Sb1       1.0  0.9999999934444627  0.9999999917854268  0.9999999765320691  1.0000
  Te  Te1       1.0  0.27550908851967554  0.27550904934963766  0.7244909400518389  1.0000
  Te  Te2       1.0  0.7244909338570021  0.7244909445766922  0.27550907584672407  1.0000
  Te  Te3       1.0  0.7244909114635713  0.275509066024053  0.2755090802975694  1.0000
  Te  Te4       1.0  0.2755090513951067  0.7244909624034841  0.7244909306707455  1.0000
  Te  Te5       1.0  0.2755090569909548  0.7244909435945788  0.275509058699798  1.0000
  Te  Te6       1.0  0.724490942167523  0.27550902240220226  0.724490937163877  1.0000
