data_image0
_chemical_formula_structural       Sn2SbS6
_chemical_formula_sum              "Sn2 Sb1 S6"
_cell_length_a       6.577176363541561
_cell_length_b       6.5771764884067885
_cell_length_c       6.577176414824074
_cell_angle_alpha    59.99999970944808
_cell_angle_beta     59.99999895136682
_cell_angle_gamma    59.99999941534421

_space_group_name_H-M_alt    "P 1"
_space_group_IT_number       1

loop_
  _space_group_symop_operation_xyz
  'x, y, z'

loop_
  _atom_site_type_symbol
  _atom_site_label
  _atom_site_symmetry_multiplicity
  _atom_site_fract_x
  _atom_site_fract_y
  _atom_site_fract_z
  _atom_site_occupancy
  Sn  Sn1       1.0  0.2500000288760224  0.24999995396297595  0.25000003055839454  1.0000
  Sn  Sn2       1.0  0.7499999608594542  0.7500000127201177  0.7499999757560649  1.0000
  Sb  Sb1       1.0  1.3211243025438254e-08  1.303479404069514e-08  0.9999999762341164  1.0000
  S   S1        1.0  0.26176374105160277  0.2617637117712815  0.7382362137287964  1.0000
  S   S2        1.0  0.7382362275799211  0.7382363182236693  0.2617637806041663  1.0000
  S   S3        1.0  0.7382362307011887  0.2617637134425485  0.26176376610250224  1.0000
  S   S4        1.0  0.2617638312792756  0.738236331449309  0.738236195393266  1.0000
  S   S5        1.0  0.26176372143536136  0.738236240488347  0.26176375616050024  1.0000
  S   S6        1.0  0.7382362437397427  0.26176369453881837  0.7382363071498861  1.0000
