data_image0
_chemical_formula_structural       Sn2SbCl6
_chemical_formula_sum              "Sn2 Sb1 Cl6"
_cell_length_a       6.964357337035129
_cell_length_b       6.964357442202414
_cell_length_c       6.964357276518012
_cell_angle_alpha    60.00000339233822
_cell_angle_beta     59.999999960453806
_cell_angle_gamma    60.00000188145975

_space_group_name_H-M_alt    "P 1"
_space_group_IT_number       1

loop_
  _space_group_symop_operation_xyz
  'x, y, z'

loop_
  _atom_site_type_symbol
  _atom_site_label
  _atom_site_symmetry_multiplicity
  _atom_site_fract_x
  _atom_site_fract_y
  _atom_site_fract_z
  _atom_site_occupancy
  Sn  Sn1       1.0  0.25000012494817614  0.2499998979071853  0.25000010943348644  1.0000
  Sn  Sn2       1.0  0.7500002273098386  0.7499999821302794  0.7499999376616104  1.0000
  Sb  Sb1       1.0  0.9999999087056713  1.7937616051437987e-07  0.9999998597549482  1.0000
  Cl  Cl1       1.0  0.25745006875921983  0.25745021254695705  0.7425497967933679  1.0000
  Cl  Cl2       1.0  0.7425497649080531  0.7425497061794762  0.25745022030667375  1.0000
  Cl  Cl3       1.0  0.7425498076110789  0.25745012211150814  0.25745011747584995  1.0000
  Cl  Cl4       1.0  0.25745012870075  0.7425498915787779  0.7425498525117652  1.0000
  Cl  Cl5       1.0  0.2574502003568875  0.7425498256528481  0.2574501691074227  1.0000
  Cl  Cl6       1.0  0.7425497573079772  0.25745019858898155  0.7425499385673501  1.0000
