data_image0
_chemical_formula_structural       Sn2SbF6
_chemical_formula_sum              "Sn2 Sb1 F6"
_cell_length_a       6.03119761719406
_cell_length_b       6.031197709400248
_cell_length_c       6.031197881447026
_cell_angle_alpha    59.999998828423024
_cell_angle_beta     59.99999995257113
_cell_angle_gamma    60.00000046907339

_space_group_name_H-M_alt    "P 1"
_space_group_IT_number       1

loop_
  _space_group_symop_operation_xyz
  'x, y, z'

loop_
  _atom_site_type_symbol
  _atom_site_label
  _atom_site_symmetry_multiplicity
  _atom_site_fract_x
  _atom_site_fract_y
  _atom_site_fract_z
  _atom_site_occupancy
  Sn  Sn1       1.0  0.2500000100971799  0.25000000099456365  0.24999999655228908  1.0000
  Sn  Sn2       1.0  0.7500000646372316  0.7500000090757393  0.7499999876764971  1.0000
  Sb  Sb1       1.0  0.9999999413259685  0.9999999979693165  6.84874014971325e-08  1.0000
  F   F1        1.0  0.24949011710690522  0.24949013526887853  0.7505098840760105  1.0000
  F   F2        1.0  0.7505099670442489  0.7505099499366841  0.24949007279918334  1.0000
  F   F3        1.0  0.7505097826942451  0.2494901926103371  0.24949018398870004  1.0000
  F   F4        1.0  0.24949018453695435  0.7505097321712926  0.7505097739406671  1.0000
  F   F5        1.0  0.2494901798358834  0.7505097767337594  0.24949021537148353  1.0000
  F   F6        1.0  0.7505097861178138  0.24949021506039884  0.7505097527995511  1.0000
