data_image0
_chemical_formula_structural       Sn2TlF6
_chemical_formula_sum              "Sn2 Tl1 F6"
_cell_length_a       5.884689855119992
_cell_length_b       5.8846899626436215
_cell_length_c       5.884689986656913
_cell_angle_alpha    59.99999953276398
_cell_angle_beta     59.99999904008522
_cell_angle_gamma    59.999998277893894

_space_group_name_H-M_alt    "P 1"
_space_group_IT_number       1

loop_
  _space_group_symop_operation_xyz
  'x, y, z'

loop_
  _atom_site_type_symbol
  _atom_site_label
  _atom_site_symmetry_multiplicity
  _atom_site_fract_x
  _atom_site_fract_y
  _atom_site_fract_z
  _atom_site_occupancy
  Sn  Sn1       1.0  0.24999996392938528  0.2500000045238491  0.2500000124640875  1.0000
  Sn  Sn2       1.0  0.7500000047836429  0.7500000218965028  0.7499999597387923  1.0000
  Tl  Tl1       1.0  1.3259367307084442e-08  2.4974873016631422e-08  0.999999965588956  1.0000
  F   F1        1.0  0.25956989725917023  0.25956986439336904  0.7404301084615452  1.0000
  F   F2        1.0  0.7404301468510883  0.7404301183209532  0.2595699192673786  1.0000
  F   F3        1.0  0.7404301069186962  0.25956984788437987  0.2595699046208699  1.0000
  F   F4        1.0  0.2595698447295703  0.7404301473173808  0.740430137605458  1.0000
  F   F5        1.0  0.25956987557379907  0.7404301404028987  0.2595699025164846  1.0000
  F   F6        1.0  0.74043018885232  0.25956984023018376  0.7404301075985044  1.0000
