data_image0
_chemical_formula_structural       Sn2TaBr6
_chemical_formula_sum              "Sn2 Ta1 Br6"
_cell_length_a       7.267157014520979
_cell_length_b       7.267156875599539
_cell_length_c       7.267156926311532
_cell_angle_alpha    60.000000728111175
_cell_angle_beta     60.00000192950774
_cell_angle_gamma    60.000001433308796

_space_group_name_H-M_alt    "P 1"
_space_group_IT_number       1

loop_
  _space_group_symop_operation_xyz
  'x, y, z'

loop_
  _atom_site_type_symbol
  _atom_site_label
  _atom_site_symmetry_multiplicity
  _atom_site_fract_x
  _atom_site_fract_y
  _atom_site_fract_z
  _atom_site_occupancy
  Sn  Sn1       1.0  0.2499999850460879  0.2500000044586991  0.24999992970097415  1.0000
  Sn  Sn2       1.0  0.7500000102055888  0.7499999864110587  0.7500000282457066  1.0000
  Ta  Ta1       1.0  1.577637943082618e-08  3.370630033135954e-08  0.9999999312249341  1.0000
  Br  Br1       1.0  0.24702704102622408  0.24702707083155642  0.7529729533496956  1.0000
  Br  Br2       1.0  0.7529729335528241  0.7529729486885568  0.2470270542742257  1.0000
  Br  Br3       1.0  0.7529728926884243  0.24702709418235272  0.24702711926443355  1.0000
  Br  Br4       1.0  0.24702705592250668  0.7529728983727199  0.7529729423471452  1.0000
  Br  Br5       1.0  0.24702708383562463  0.752972929500203  0.24702708321529643  1.0000
  Br  Br6       1.0  0.7529729807038991  0.24702701081010553  0.7529729616909625  1.0000
