data_image0
_chemical_formula_structural       Sn2TlBr6
_chemical_formula_sum              "Sn2 Tl1 Br6"
_cell_length_a       7.298379541737286
_cell_length_b       7.298379352719455
_cell_length_c       7.2983794761762
_cell_angle_alpha    59.99999935125446
_cell_angle_beta     59.999999787268955
_cell_angle_gamma    59.99999959894728

_space_group_name_H-M_alt    "P 1"
_space_group_IT_number       1

loop_
  _space_group_symop_operation_xyz
  'x, y, z'

loop_
  _atom_site_type_symbol
  _atom_site_label
  _atom_site_symmetry_multiplicity
  _atom_site_fract_x
  _atom_site_fract_y
  _atom_site_fract_z
  _atom_site_occupancy
  Sn  Sn1       1.0  0.2500000373016132  0.24999989184864105  0.25000008114065964  1.0000
  Sn  Sn2       1.0  0.7499998935291065  0.7500002309987652  0.7500000419994127  1.0000
  Tl  Tl1       1.0  1.741992720610978e-08  0.9999999714722105  0.999999942526241  1.0000
  Br  Br1       1.0  0.26375385127944945  0.2637536934672229  0.7362462187354563  1.0000
  Br  Br2       1.0  0.7362461821377427  0.7362462212951306  0.2637537516288295  1.0000
  Br  Br3       1.0  0.7362461699586332  0.2637537775516441  0.26375383572982253  1.0000
  Br  Br4       1.0  0.26375378629865015  0.7362463117336566  0.7362461489806341  1.0000
  Br  Br5       1.0  0.2637538361289147  0.7362461837649709  0.2637537832281217  1.0000
  Br  Br6       1.0  0.736246226885404  0.26375372764117205  0.736246183606876  1.0000
