data_image0
_chemical_formula_structural       Sn2TlCl6
_chemical_formula_sum              "Sn2 Tl1 Cl6"
_cell_length_a       6.967506685641254
_cell_length_b       6.967506441737442
_cell_length_c       6.9675064985298265
_cell_angle_alpha    60.000002528161744
_cell_angle_beta     60.000002145661824
_cell_angle_gamma    60.000001816830114

_space_group_name_H-M_alt    "P 1"
_space_group_IT_number       1

loop_
  _space_group_symop_operation_xyz
  'x, y, z'

loop_
  _atom_site_type_symbol
  _atom_site_label
  _atom_site_symmetry_multiplicity
  _atom_site_fract_x
  _atom_site_fract_y
  _atom_site_fract_z
  _atom_site_occupancy
  Sn  Sn1       1.0  0.25000012464973237  0.25000024565390905  0.24999997475007252  1.0000
  Sn  Sn2       1.0  0.7499998383598829  0.7500002307167251  0.7499997103277152  1.0000
  Tl  Tl1       1.0  2.6415710282880427e-08  5.273385222600491e-09  0.9999999769792842  1.0000
  Cl  Cl1       1.0  0.2621618159553306  0.26216153097774997  0.7378383161207513  1.0000
  Cl  Cl2       1.0  0.7378383981834161  0.7378382616106137  0.26216182209715105  1.0000
  Cl  Cl3       1.0  0.7378381861019003  0.262161534012138  0.26216181264359306  1.0000
  Cl  Cl4       1.0  0.2621617652009214  0.7378382814275558  0.7378383163955736  1.0000
  Cl  Cl5       1.0  0.26216159370520786  0.7378383055144221  0.2621617114059284  1.0000
  Cl  Cl6       1.0  0.7378382590807709  0.262161606603997  0.7378383467906141  1.0000
