data_image0
_chemical_formula_structural       Sn2TaI6
_chemical_formula_sum              "Sn2 Ta1 I6"
_cell_length_a       7.899459864638828
_cell_length_b       7.899459947416976
_cell_length_c       7.899459789505321
_cell_angle_alpha    60.00000046831689
_cell_angle_beta     60.000001375057394
_cell_angle_gamma    59.99999978885329

_space_group_name_H-M_alt    "P 1"
_space_group_IT_number       1

loop_
  _space_group_symop_operation_xyz
  'x, y, z'

loop_
  _atom_site_type_symbol
  _atom_site_label
  _atom_site_symmetry_multiplicity
  _atom_site_fract_x
  _atom_site_fract_y
  _atom_site_fract_z
  _atom_site_occupancy
  Sn  Sn1       1.0  0.24999997203427413  0.25000000965157165  0.24999999880123236  1.0000
  Sn  Sn2       1.0  0.7499999920705942  0.7499999545347489  0.7499999753752452  1.0000
  Ta  Ta1       1.0  1.4262783008200702e-08  1.8604991011385004e-08  2.2809302898012108e-08  1.0000
  I   I1        1.0  0.24749511944882663  0.24749506774744182  0.7525049131506867  1.0000
  I   I2        1.0  0.7525048787777969  0.7525049212455328  0.24749512777069718  1.0000
  I   I3        1.0  0.7525049281983399  0.24749507065964213  0.24749505366730865  1.0000
  I   I4        1.0  0.24749513263257272  0.7525049059300047  0.752504925442224  1.0000
  I   I5        1.0  0.24749507097138573  0.7525049431674175  0.24749503491368308  1.0000
  I   I6        1.0  0.7525048870635183  0.24749510939261196  0.7525049462154775  1.0000
