data_image0
_chemical_formula_structural       Sn2TlI6
_chemical_formula_sum              "Sn2 Tl1 I6"
_cell_length_a       7.784290092038683
_cell_length_b       7.784289927535699
_cell_length_c       7.784290083003345
_cell_angle_alpha    59.999999978837536
_cell_angle_beta     59.999998750011486
_cell_angle_gamma    60.00000035879149

_space_group_name_H-M_alt    "P 1"
_space_group_IT_number       1

loop_
  _space_group_symop_operation_xyz
  'x, y, z'

loop_
  _atom_site_type_symbol
  _atom_site_label
  _atom_site_symmetry_multiplicity
  _atom_site_fract_x
  _atom_site_fract_y
  _atom_site_fract_z
  _atom_site_occupancy
  Sn  Sn1       1.0  0.24999998039246005  0.24999995657952184  0.25000001596409754  1.0000
  Sn  Sn2       1.0  0.74999998155485  0.7500000601144793  0.7500000725412154  1.0000
  Tl  Tl1       1.0  0.9999999903953476  1.1013482263871125e-08  0.9999999890184759  1.0000
  I   I1        1.0  0.26504157404996914  0.2650415163716936  0.7349584736578277  1.0000
  I   I2        1.0  0.7349584479521142  0.7349584625617958  0.2650415047831767  1.0000
  I   I3        1.0  0.7349584370336495  0.2650415892648827  0.2650415295943815  1.0000
  I   I4        1.0  0.26504155834226417  0.7349584116955711  0.7349584421537552  1.0000
  I   I5        1.0  0.2650415941498992  0.7349584516283715  0.26504154468615226  1.0000
  I   I6        1.0  0.7349584340401828  0.26504153989195495  0.7349584307906275  1.0000
