data_image0
_chemical_formula_structural       Sn2TaF6
_chemical_formula_sum              "Sn2 Ta1 F6"
_cell_length_a       6.106641781092815
_cell_length_b       6.106641049272414
_cell_length_c       6.10664175543782
_cell_angle_alpha    59.999999351242984
_cell_angle_beta     59.999998690572326
_cell_angle_gamma    59.99999888442647

_space_group_name_H-M_alt    "P 1"
_space_group_IT_number       1

loop_
  _space_group_symop_operation_xyz
  'x, y, z'

loop_
  _atom_site_type_symbol
  _atom_site_label
  _atom_site_symmetry_multiplicity
  _atom_site_fract_x
  _atom_site_fract_y
  _atom_site_fract_z
  _atom_site_occupancy
  Sn  Sn1       1.0  0.24999999860397049  0.24999996752088083  0.25000003040159985  1.0000
  Sn  Sn2       1.0  0.7499999773780902  0.7500000429542929  0.7500000089375922  1.0000
  Ta  Ta1       1.0  0.9999999674353759  0.9999999558769063  0.9999999744789688  1.0000
  F   F1        1.0  0.22669309909181082  0.22669315864731435  0.7733068879387316  1.0000
  F   F2        1.0  0.7733067891259435  0.7733068598502382  0.22669319454654796  1.0000
  F   F3        1.0  0.773306908600882  0.22669311793541022  0.22669312827564692  1.0000
  F   F4        1.0  0.22669320845427407  0.7733068323719123  0.7733068067460306  1.0000
  F   F5        1.0  0.22669314210866492  0.7733068397805103  0.22669312385330112  1.0000
  F   F6        1.0  0.7733068557611974  0.22669321281215712  0.7733068327188449  1.0000
