data_image0
_chemical_formula_structural       Sn2TaCl6
_chemical_formula_sum              "Sn2 Ta1 Cl6"
_cell_length_a       6.91401942209253
_cell_length_b       6.9140198925959515
_cell_length_c       6.914019559872397
_cell_angle_alpha    59.99999754318549
_cell_angle_beta     59.99999792634667
_cell_angle_gamma    59.999999787674064

_space_group_name_H-M_alt    "P 1"
_space_group_IT_number       1

loop_
  _space_group_symop_operation_xyz
  'x, y, z'

loop_
  _atom_site_type_symbol
  _atom_site_label
  _atom_site_symmetry_multiplicity
  _atom_site_fract_x
  _atom_site_fract_y
  _atom_site_fract_z
  _atom_site_occupancy
  Sn  Sn1       1.0  0.24999998381070926  0.25000004622924943  0.250000143888674  1.0000
  Sn  Sn2       1.0  0.7499999171360253  0.7500001564017053  0.7499998585297547  1.0000
  Ta  Ta1       1.0  0.999999981443822  0.9999999805146687  1.274960054759844e-07  1.0000
  Cl  Cl1       1.0  0.24460853765566398  0.2446085971747539  0.7553914239502205  1.0000
  Cl  Cl2       1.0  0.7553914391744424  0.7553913627753103  0.24460867922301383  1.0000
  Cl  Cl3       1.0  0.7553915290302239  0.24460843175947494  0.24460864962707843  1.0000
  Cl  Cl4       1.0  0.24460863552686032  0.7553913758507671  0.7553912883262409  1.0000
  Cl  Cl5       1.0  0.24460857301238187  0.7553914249064853  0.2446085543621329  1.0000
  Cl  Cl6       1.0  0.755391412807783  0.24460861829907568  0.7553912842914848  1.0000
