data_image0
_chemical_formula_structural       Sr2AsCl6
_chemical_formula_sum              "Sr2 As1 Cl6"
_cell_length_a       7.000066767874503
_cell_length_b       7.000066479960726
_cell_length_c       7.000066820615238
_cell_angle_alpha    60.00000049331755
_cell_angle_beta     60.00000150693136
_cell_angle_gamma    60.00000254780538

_space_group_name_H-M_alt    "P 1"
_space_group_IT_number       1

loop_
  _space_group_symop_operation_xyz
  'x, y, z'

loop_
  _atom_site_type_symbol
  _atom_site_label
  _atom_site_symmetry_multiplicity
  _atom_site_fract_x
  _atom_site_fract_y
  _atom_site_fract_z
  _atom_site_occupancy
  Sr  Sr1       1.0  0.24999998377180255  0.24999998844056573  0.25000002114151304  1.0000
  Sr  Sr2       1.0  0.7499999703924807  0.7500000318072161  0.7500000206432444  1.0000
  As  As1       1.0  1.4114179350292506e-08  0.9999999230167682  0.9999999900063492  1.0000
  Cl  Cl1       1.0  0.2515029978175734  0.2515029529665228  0.7484970089986164  1.0000
  Cl  Cl2       1.0  0.7484970584362504  0.7484970480354534  0.2515029413647521  1.0000
  Cl  Cl3       1.0  0.748497061253648  0.2515029325803985  0.25150292760225973  1.0000
  Cl  Cl4       1.0  0.2515029233688138  0.7484971051635733  0.748497085919641  1.0000
  Cl  Cl5       1.0  0.2515029028955478  0.7484970511224763  0.2515029473849064  1.0000
  Cl  Cl6       1.0  0.74849707669535  0.2515029621268304  0.7484970666145304  1.0000
