data_image0
_chemical_formula_structural       Sr2AsI6
_chemical_formula_sum              "Sr2 As1 I6"
_cell_length_a       7.988007191458849
_cell_length_b       7.988007042351946
_cell_length_c       7.988007227221392
_cell_angle_alpha    59.9999998886108
_cell_angle_beta     59.999998873043
_cell_angle_gamma    60.0000022741865

_space_group_name_H-M_alt    "P 1"
_space_group_IT_number       1

loop_
  _space_group_symop_operation_xyz
  'x, y, z'

loop_
  _atom_site_type_symbol
  _atom_site_label
  _atom_site_symmetry_multiplicity
  _atom_site_fract_x
  _atom_site_fract_y
  _atom_site_fract_z
  _atom_site_occupancy
  Sr  Sr1       1.0  0.24999992572821295  0.24999996703536184  0.2500000538046506  1.0000
  Sr  Sr2       1.0  0.7500000822943002  0.7500000222312313  0.749999930770273  1.0000
  As  As1       1.0  0.9999999851362269  0.999999970868638  5.079073124136278e-08  1.0000
  I   I1        1.0  0.2542519252822211  0.254251918842103  0.7457480714024446  1.0000
  I   I2        1.0  0.7457481158124001  0.7457480796238686  0.254251905807379  1.0000
  I   I3        1.0  0.7457480615528925  0.25425195485725494  0.25425195534358713  1.0000
  I   I4        1.0  0.25425193540131125  0.7457480589410111  0.7457480425296819  1.0000
  I   I5        1.0  0.2542519354412667  0.7457480473451689  0.25425196695446955  1.0000
  I   I6        1.0  0.7457480386322707  0.2542519787189328  0.7457480186999416  1.0000
