data_image0
_chemical_formula_structural       Sr2AsF6
_chemical_formula_sum              "Sr2 As1 F6"
_cell_length_a       5.934513585211128
_cell_length_b       5.934513293728818
_cell_length_c       5.934513330035624
_cell_angle_alpha    60.00000118418111
_cell_angle_beta     59.99999879183321
_cell_angle_gamma    59.99999980117185

_space_group_name_H-M_alt    "P 1"
_space_group_IT_number       1

loop_
  _space_group_symop_operation_xyz
  'x, y, z'

loop_
  _atom_site_type_symbol
  _atom_site_label
  _atom_site_symmetry_multiplicity
  _atom_site_fract_x
  _atom_site_fract_y
  _atom_site_fract_z
  _atom_site_occupancy
  Sr  Sr1       1.0  0.24999988293272649  0.24999995874253347  0.25000011135270406  1.0000
  Sr  Sr2       1.0  0.7500000433478022  0.7500000351376046  0.7499999511696296  1.0000
  As  As1       1.0  0.9999999733498198  0.9999999690435049  1.3637814552360137e-08  1.0000
  F   F1        1.0  0.25789432903223036  0.25789443494047654  0.7421056273784759  1.0000
  F   F2        1.0  0.7421057266887295  0.7421055733860263  0.25789437499586454  1.0000
  F   F3        1.0  0.7421056980986622  0.257894297870455  0.25789434959742547  1.0000
  F   F4        1.0  0.25789430553925236  0.7421057207748777  0.7421056129969306  1.0000
  F   F5        1.0  0.257894450759063  0.7421056154812316  0.25789432410696994  1.0000
  F   F6        1.0  0.742105688669112  0.25789432267721574  0.7421056243161606  1.0000
