data_image0
_chemical_formula_structural       Sr2AsBr6
_chemical_formula_sum              "Sr2 As1 Br6"
_cell_length_a       7.356763208777271
_cell_length_b       7.356763225633448
_cell_length_c       7.356763138267357
_cell_angle_alpha    60.0000009491891
_cell_angle_beta     59.99999983796767
_cell_angle_gamma    60.00000031832098

_space_group_name_H-M_alt    "P 1"
_space_group_IT_number       1

loop_
  _space_group_symop_operation_xyz
  'x, y, z'

loop_
  _atom_site_type_symbol
  _atom_site_label
  _atom_site_symmetry_multiplicity
  _atom_site_fract_x
  _atom_site_fract_y
  _atom_site_fract_z
  _atom_site_occupancy
  Sr  Sr1       1.0  0.2500000277936629  0.24999996178990294  0.2499999728489179  1.0000
  Sr  Sr2       1.0  0.7499999317957041  0.750000015223147  0.750000054467676  1.0000
  As  As1       1.0  3.1201115134168354e-08  9.988726719320188e-09  8.542996866370616e-08  1.0000
  Br  Br1       1.0  0.2537108298580323  0.25371086575369123  0.7462891539371014  1.0000
  Br  Br2       1.0  0.7462891154147214  0.7462891212480846  0.2537108687469689  1.0000
  Br  Br3       1.0  0.7462891847042672  0.253710836184461  0.2537107824350417  1.0000
  Br  Br4       1.0  0.25371086932900977  0.7462891541468895  0.7462891189578935  1.0000
  Br  Br5       1.0  0.25371086565156964  0.7462891534781041  0.2537108238700369  1.0000
  Br  Br6       1.0  0.7462891489355281  0.25371087514336266  0.746289128394788  1.0000
