data_image0
_chemical_formula_structural       Sr2BiF6
_chemical_formula_sum              "Sr2 Bi1 F6"
_cell_length_a       6.168849348499427
_cell_length_b       6.16884940830956
_cell_length_c       6.1688488795950915
_cell_angle_alpha    59.999998224213776
_cell_angle_beta     59.99999951909438
_cell_angle_gamma    59.9999997137445

_space_group_name_H-M_alt    "P 1"
_space_group_IT_number       1

loop_
  _space_group_symop_operation_xyz
  'x, y, z'

loop_
  _atom_site_type_symbol
  _atom_site_label
  _atom_site_symmetry_multiplicity
  _atom_site_fract_x
  _atom_site_fract_y
  _atom_site_fract_z
  _atom_site_occupancy
  Sr  Sr1       1.0  0.2500000486193606  0.24999988730074643  0.2500000630909516  1.0000
  Sr  Sr2       1.0  0.7499999739290497  0.7499999418394215  0.7500000136901755  1.0000
  Bi  Bi1       1.0  3.289468596029169e-09  2.3824439931468957e-08  5.895620562014906e-09  1.0000
  F   F1        1.0  0.26064236845738104  0.2606423855133573  0.7393576226867675  1.0000
  F   F2        1.0  0.7393575645612505  0.7393576560614077  0.2606423634630815  1.0000
  F   F3        1.0  0.7393575755164256  0.260642449764902  0.2606424220026153  1.0000
  F   F4        1.0  0.2606424516611735  0.7393575620293115  0.7393575595158404  1.0000
  F   F5        1.0  0.2606425007556214  0.7393575816337726  0.26064244434018  1.0000
  F   F6        1.0  0.73935750600055  0.26064251950208994  0.7393575870126571  1.0000
