data_image0
_chemical_formula_structural       Sr2BF6
_chemical_formula_sum              "Sr2 B1 F6"
_cell_length_a       5.470245140903852
_cell_length_b       5.470243967554795
_cell_length_c       5.470244317769378
_cell_angle_alpha    60.00000133361909
_cell_angle_beta     60.00000189176784
_cell_angle_gamma    60.00000139303571

_space_group_name_H-M_alt    "P 1"
_space_group_IT_number       1

loop_
  _space_group_symop_operation_xyz
  'x, y, z'

loop_
  _atom_site_type_symbol
  _atom_site_label
  _atom_site_symmetry_multiplicity
  _atom_site_fract_x
  _atom_site_fract_y
  _atom_site_fract_z
  _atom_site_occupancy
  Sr  Sr1       1.0  0.2500000284654848  0.24999992800886534  0.25000004276614296  1.0000
  Sr  Sr2       1.0  0.7499999855413143  0.7500000392636763  0.7499999427512247  1.0000
  B   B1        1.0  8.505326539792652e-08  4.477852608374581e-09  5.5778394399740356e-08  1.0000
  F   F1        1.0  0.23641086820857632  0.23641079204106744  0.7635891947009871  1.0000
  F   F2        1.0  0.7635890541122896  0.7635892603105036  0.2364108617584976  1.0000
  F   F3        1.0  0.763589182773588  0.23641069484379576  0.23641085425809719  1.0000
  F   F4        1.0  0.23641083784390388  0.7635892209335399  0.7635890769225051  1.0000
  F   F5        1.0  0.23641087036843844  0.7635891852039256  0.2364107894982857  1.0000
  F   F6        1.0  0.7635891448309448  0.23641086714764217  0.7635890761042585  1.0000
