data_image0
_chemical_formula_structural       Sr2BiCl6
_chemical_formula_sum              "Sr2 Bi1 Cl6"
_cell_length_a       7.241287938290962
_cell_length_b       7.241288151049363
_cell_length_c       7.24128811109602
_cell_angle_alpha    59.999999490539906
_cell_angle_beta     59.99999975076936
_cell_angle_gamma    60.00000039503434

_space_group_name_H-M_alt    "P 1"
_space_group_IT_number       1

loop_
  _space_group_symop_operation_xyz
  'x, y, z'

loop_
  _atom_site_type_symbol
  _atom_site_label
  _atom_site_symmetry_multiplicity
  _atom_site_fract_x
  _atom_site_fract_y
  _atom_site_fract_z
  _atom_site_occupancy
  Sr  Sr1       1.0  0.24999994137871467  0.250000020550158  0.2499999793154471  1.0000
  Sr  Sr2       1.0  0.7500000485750064  0.7499999432569786  0.7499999967822111  1.0000
  Bi  Bi1       1.0  0.9999999818955486  1.6913360479411818e-09  0.999999962634555  1.0000
  Cl  Cl1       1.0  0.2617240790374408  0.2617241327232282  0.7382758978109685  1.0000
  Cl  Cl2       1.0  0.7382759110765471  0.738275878441306  0.26172409871888985  1.0000
  Cl  Cl3       1.0  0.7382758969198908  0.2617241091266717  0.26172411943795104  1.0000
  Cl  Cl4       1.0  0.2617241039694276  0.7382759223338895  0.7382759112711402  1.0000
  Cl  Cl5       1.0  0.26172411491381903  0.7382759152055443  0.26172409882098857  1.0000
  Cl  Cl6       1.0  0.7382759228615046  0.2617240773542974  0.7382759370383697  1.0000
