data_image0
_chemical_formula_structural       Sr2BI6
_chemical_formula_sum              "Sr2 B1 I6"
_cell_length_a       7.7259448059242235
_cell_length_b       7.725944964795969
_cell_length_c       7.725944752631316
_cell_angle_alpha    60.000001053737975
_cell_angle_beta     60.00000111817865
_cell_angle_gamma    59.99999950536363

_space_group_name_H-M_alt    "P 1"
_space_group_IT_number       1

loop_
  _space_group_symop_operation_xyz
  'x, y, z'

loop_
  _atom_site_type_symbol
  _atom_site_label
  _atom_site_symmetry_multiplicity
  _atom_site_fract_x
  _atom_site_fract_y
  _atom_site_fract_z
  _atom_site_occupancy
  Sr  Sr1       1.0  0.2499998832936674  0.24999998786024524  0.25000011345227774  1.0000
  Sr  Sr2       1.0  0.7500000393744879  0.7500000729620357  0.7499998773533288  1.0000
  B   B1        1.0  8.728887841787783e-08  2.0608070714495522e-08  0.9999999551119066  1.0000
  I   I1        1.0  0.24400158693394342  0.24400166843530338  0.7559983376424508  1.0000
  I   I2        1.0  0.7559983685864252  0.755998289346616  0.24400165201570764  1.0000
  I   I3        1.0  0.7559984036124819  0.24400157270182007  0.24400159422523118  1.0000
  I   I4        1.0  0.24400155830838402  0.7559984151995891  0.7559984587163591  1.0000
  I   I5        1.0  0.2440016641597762  0.7559983304752348  0.24400163136835953  1.0000
  I   I6        1.0  0.7559983991357732  0.2440016447442819  0.7559983836985364  1.0000
