data_image0
_chemical_formula_structural       Sr2BCl6
_chemical_formula_sum              "Sr2 B1 Cl6"
_cell_length_a       6.615832957464959
_cell_length_b       6.615833076618777
_cell_length_c       6.615832944278431
_cell_angle_alpha    59.99999883898366
_cell_angle_beta     59.99999946046598
_cell_angle_gamma    60.00000229329899

_space_group_name_H-M_alt    "P 1"
_space_group_IT_number       1

loop_
  _space_group_symop_operation_xyz
  'x, y, z'

loop_
  _atom_site_type_symbol
  _atom_site_label
  _atom_site_symmetry_multiplicity
  _atom_site_fract_x
  _atom_site_fract_y
  _atom_site_fract_z
  _atom_site_occupancy
  Sr  Sr1       1.0  0.2500000118721673  0.24999997586596706  0.24999998610455773  1.0000
  Sr  Sr2       1.0  0.7499999924392325  0.7500000257132501  0.7499999565405651  1.0000
  B   B1        1.0  0.9999999231709747  0.9999998796698488  2.0287484765178293e-07  1.0000
  Cl  Cl1       1.0  0.22366431411548834  0.22366434515397754  0.776335679217816  1.0000
  Cl  Cl2       1.0  0.7763357719433934  0.7763357934164853  0.2236642114959086  1.0000
  Cl  Cl3       1.0  0.7763356840385606  0.22366435212385333  0.2236642773201704  1.0000
  Cl  Cl4       1.0  0.22366441136730575  0.7763356013233071  0.776335680120359  1.0000
  Cl  Cl5       1.0  0.22366433566840568  0.7763356448008362  0.22366431217468774  1.0000
  Cl  Cl6       1.0  0.7763355637974009  0.223664393803038  0.7763356915883617  1.0000
