data_image0
_chemical_formula_structural       Sr2BiI6
_chemical_formula_sum              "Sr2 Bi1 I6"
_cell_length_a       8.202214511898127
_cell_length_b       8.202214434734593
_cell_length_c       8.202214677808334
_cell_angle_alpha    59.999999543724414
_cell_angle_beta     59.99999898911518
_cell_angle_gamma    60.00000237855589

_space_group_name_H-M_alt    "P 1"
_space_group_IT_number       1

loop_
  _space_group_symop_operation_xyz
  'x, y, z'

loop_
  _atom_site_type_symbol
  _atom_site_label
  _atom_site_symmetry_multiplicity
  _atom_site_fract_x
  _atom_site_fract_y
  _atom_site_fract_z
  _atom_site_occupancy
  Sr  Sr1       1.0  0.24999995889164872  0.25000003722503744  0.24999995609070813  1.0000
  Sr  Sr2       1.0  0.7500000002775868  0.7500000280565868  0.750000093335832  1.0000
  Bi  Bi1       1.0  5.12380087296046e-10  0.9999999731226152  4.6100440943972676e-08  1.0000
  I   I1        1.0  0.2625651462792008  0.2625651217067005  0.7374348556633167  1.0000
  I   I2        1.0  0.7374348898647748  0.7374348689155227  0.26256508287909097  1.0000
  I   I3        1.0  0.7374348544524253  0.26256514771210476  0.26256514852654944  1.0000
  I   I4        1.0  0.26256513863314895  0.7374348369373651  0.7374348596412035  1.0000
  I   I5        1.0  0.2625651828077292  0.7374348529144735  0.2625651190055817  1.0000
  I   I6        1.0  0.7374348246826933  0.2625651392009367  0.7374348367745579  1.0000
