data_image0
_chemical_formula_structural       Sr2GaI6
_chemical_formula_sum              "Sr2 Ga1 I6"
_cell_length_a       7.91405702938846
_cell_length_b       7.914057131801211
_cell_length_c       7.914057052970624
_cell_angle_alpha    59.99999936035881
_cell_angle_beta     60.000001269666214
_cell_angle_gamma    59.9999994981688

_space_group_name_H-M_alt    "P 1"
_space_group_IT_number       1

loop_
  _space_group_symop_operation_xyz
  'x, y, z'

loop_
  _atom_site_type_symbol
  _atom_site_label
  _atom_site_symmetry_multiplicity
  _atom_site_fract_x
  _atom_site_fract_y
  _atom_site_fract_z
  _atom_site_occupancy
  Sr  Sr1       1.0  0.24999988554865796  0.25000009358371944  0.2499999572982548  1.0000
  Sr  Sr2       1.0  0.7500000941310577  0.7499999356461006  0.7500000645203225  1.0000
  Ga  Ga1       1.0  1.2972230899014506e-09  0.9999999829768809  1.1653671420208548e-08  1.0000
  I   I1        1.0  0.25203831336153387  0.25203834091927285  0.7479616770351454  1.0000
  I   I2        1.0  0.7479617560282841  0.7479616511691962  0.252038289436846  1.0000
  I   I3        1.0  0.747961687991339  0.25203833067641684  0.25203830764615437  1.0000
  I   I4        1.0  0.25203828922799315  0.7479616490316022  0.7479617300549203  1.0000
  I   I5        1.0  0.25203828570258774  0.747961700375647  0.2520382924362185  1.0000
  I   I6        1.0  0.7479616898654952  0.2520383149261675  0.7479616663784364  1.0000
