data_image0
_chemical_formula_structural       Sr2GaCl6
_chemical_formula_sum              "Sr2 Ga1 Cl6"
_cell_length_a       6.865441241188133
_cell_length_b       6.8654414375823185
_cell_length_c       6.865441480107389
_cell_angle_alpha    59.99999914361915
_cell_angle_beta     60.00000069461218
_cell_angle_gamma    59.999999900547294

_space_group_name_H-M_alt    "P 1"
_space_group_IT_number       1

loop_
  _space_group_symop_operation_xyz
  'x, y, z'

loop_
  _atom_site_type_symbol
  _atom_site_label
  _atom_site_symmetry_multiplicity
  _atom_site_fract_x
  _atom_site_fract_y
  _atom_site_fract_z
  _atom_site_occupancy
  Sr  Sr1       1.0  0.25000007597913954  0.250000066313827  0.2499998917747976  1.0000
  Sr  Sr2       1.0  0.7499999556937132  0.7499999813023421  0.7500000367914573  1.0000
  Ga  Ga1       1.0  0.9999999555243504  0.9999999215071947  1.7509673157993733e-07  1.0000
  Cl  Cl1       1.0  0.24712351108995345  0.24712335318493253  0.7528766472756993  1.0000
  Cl  Cl2       1.0  0.752876627834092  0.752876685511598  0.24712333699786126  1.0000
  Cl  Cl3       1.0  0.7528765975243368  0.24712329823894297  0.24712347871983542  1.0000
  Cl  Cl4       1.0  0.24712344052354474  0.7528765031952515  0.7528765012910771  1.0000
  Cl  Cl5       1.0  0.24712331202946503  0.7528767191774484  0.2471234116488388  1.0000
  Cl  Cl6       1.0  0.7528765234698958  0.2471234729368377  0.7528765194499712  1.0000
