data_image0
_chemical_formula_structural       Sr2GaBr6
_chemical_formula_sum              "Sr2 Ga1 Br6"
_cell_length_a       7.228953565489396
_cell_length_b       7.228953557703369
_cell_length_c       7.228953633554656
_cell_angle_alpha    60.00000005932122
_cell_angle_beta     59.999999632988704
_cell_angle_gamma    59.99999852871109

_space_group_name_H-M_alt    "P 1"
_space_group_IT_number       1

loop_
  _space_group_symop_operation_xyz
  'x, y, z'

loop_
  _atom_site_type_symbol
  _atom_site_label
  _atom_site_symmetry_multiplicity
  _atom_site_fract_x
  _atom_site_fract_y
  _atom_site_fract_z
  _atom_site_occupancy
  Sr  Sr1       1.0  0.25000000209597406  0.25000002727619774  0.2500000016392318  1.0000
  Sr  Sr2       1.0  0.7499999901873596  0.7499999767868581  0.7499999866392583  1.0000
  Ga  Ga1       1.0  1.791115824735129e-09  0.9999999898346709  1.2487063047823042e-08  1.0000
  Br  Br1       1.0  0.25045967700161004  0.2504596804499517  0.7495403380465564  1.0000
  Br  Br2       1.0  0.7495403345465463  0.7495403185304395  0.25045967634068034  1.0000
  Br  Br3       1.0  0.7495403783008036  0.2504596169877327  0.2504596965644776  1.0000
  Br  Br4       1.0  0.25045966550120824  0.7495403379428979  0.7495402974375162  1.0000
  Br  Br5       1.0  0.25045962643832687  0.7495403745058551  0.2504596968624063  1.0000
  Br  Br6       1.0  0.7495403244750334  0.2504596769954045  0.7495402925319473  1.0000
