data_image0
_chemical_formula_structural       Sr2GaF6
_chemical_formula_sum              "Sr2 Ga1 F6"
_cell_length_a       5.704346885665621
_cell_length_b       5.704347000047236
_cell_length_c       5.704346618635626
_cell_angle_alpha    60.000002934751805
_cell_angle_beta     60.000003620823975
_cell_angle_gamma    60.00000291451017

_space_group_name_H-M_alt    "P 1"
_space_group_IT_number       1

loop_
  _space_group_symop_operation_xyz
  'x, y, z'

loop_
  _atom_site_type_symbol
  _atom_site_label
  _atom_site_symmetry_multiplicity
  _atom_site_fract_x
  _atom_site_fract_y
  _atom_site_fract_z
  _atom_site_occupancy
  Sr  Sr1       1.0  0.2499999651006707  0.24999997284370726  0.25000006798353674  1.0000
  Sr  Sr2       1.0  0.7499999873122346  0.7499999765011414  0.7500000009879029  1.0000
  Ga  Ga1       1.0  0.9999999888157824  0.9999999849707357  5.34268711186285e-08  1.0000
  F   F1        1.0  0.23983453961272308  0.23983458659890813  0.7601654334346261  1.0000
  F   F2        1.0  0.7601654394205594  0.7601654529215259  0.23983456136139097  1.0000
  F   F3        1.0  0.7601653468861982  0.23983466037645076  0.23983455719275423  1.0000
  F   F4        1.0  0.2398346914641898  0.7601653469384173  0.7601653206175933  1.0000
  F   F5        1.0  0.23983461085520208  0.7601653982776132  0.2398345895184702  1.0000
  F   F6        1.0  0.7601653562781824  0.23983462836059424  0.7601653966320187  1.0000
