data_image0
_chemical_formula_structural       Sr2IrI6
_chemical_formula_sum              "Sr2 Ir1 I6"
_cell_length_a       7.80099089839916
_cell_length_b       7.800990829006699
_cell_length_c       7.8009907695559315
_cell_angle_alpha    60.000000977502346
_cell_angle_beta     60.00000106299063
_cell_angle_gamma    60.00000005689367

_space_group_name_H-M_alt    "P 1"
_space_group_IT_number       1

loop_
  _space_group_symop_operation_xyz
  'x, y, z'

loop_
  _atom_site_type_symbol
  _atom_site_label
  _atom_site_symmetry_multiplicity
  _atom_site_fract_x
  _atom_site_fract_y
  _atom_site_fract_z
  _atom_site_occupancy
  Sr  Sr1       1.0  0.25000000130714845  0.25000003073050703  0.24999994469493966  1.0000
  Sr  Sr2       1.0  0.7500000282793421  0.7499999791525092  0.7500000296882138  1.0000
  Ir  Ir1       1.0  4.189446826561229e-08  0.9999999764502053  0.9999999715993364  1.0000
  I   I1        1.0  0.24411336447857288  0.24411332949267905  0.7558866604902758  1.0000
  I   I2        1.0  0.7558866578865095  0.7558866709704194  0.2441133363143135  1.0000
  I   I3        1.0  0.7558866674882365  0.24411330479843837  0.2441133265037193  1.0000
  I   I4        1.0  0.24411330124599434  0.7558866878147291  0.7558867177058108  1.0000
  I   I5        1.0  0.24411331297328417  0.7558866846053376  0.244113310819536  1.0000
  I   I6        1.0  0.7558866206543466  0.24411333783756942  0.7558866975717708  1.0000
