data_image0
_chemical_formula_structural       Sr2IrBr6
_chemical_formula_sum              "Sr2 Ir1 Br6"
_cell_length_a       7.201118587122268
_cell_length_b       7.201118527899647
_cell_length_c       7.201118617988033
_cell_angle_alpha    59.999999784151385
_cell_angle_beta     60.00000099865529
_cell_angle_gamma    60.000000811132125

_space_group_name_H-M_alt    "P 1"
_space_group_IT_number       1

loop_
  _space_group_symop_operation_xyz
  'x, y, z'

loop_
  _atom_site_type_symbol
  _atom_site_label
  _atom_site_symmetry_multiplicity
  _atom_site_fract_x
  _atom_site_fract_y
  _atom_site_fract_z
  _atom_site_occupancy
  Sr  Sr1       1.0  0.2499999601555557  0.2500000096155835  0.2499999997301777  1.0000
  Sr  Sr2       1.0  0.7500000126513688  0.7499999642174793  0.7500000098503594  1.0000
  Ir  Ir1       1.0  3.557689977916145e-07  0.9999998707414579  2.1447163599051526e-07  1.0000
  Br  Br1       1.0  0.2452352055012193  0.24523520521413614  0.7547647862929371  1.0000
  Br  Br2       1.0  0.7547647756789112  0.7547648060358739  0.2452352309433328  1.0000
  Br  Br3       1.0  0.7547648083814699  0.24523516155079977  0.24523517559379698  1.0000
  Br  Br4       1.0  0.2452352093735646  0.7547647255429768  0.7547647910033644  1.0000
  Br  Br5       1.0  0.24523505489761394  0.7547648779637047  0.2452351418965407  1.0000
  Br  Br6       1.0  0.754764620819507  0.24523537139414897  0.7547646507241057  1.0000
