data_image0
_chemical_formula_structural       Sr2IrF6
_chemical_formula_sum              "Sr2 Ir1 F6"
_cell_length_a       5.702064251970568
_cell_length_b       5.70206381876389
_cell_length_c       5.702064029798123
_cell_angle_alpha    59.99999935150169
_cell_angle_beta     59.99999988135178
_cell_angle_gamma    59.99999921996858

_space_group_name_H-M_alt    "P 1"
_space_group_IT_number       1

loop_
  _space_group_symop_operation_xyz
  'x, y, z'

loop_
  _atom_site_type_symbol
  _atom_site_label
  _atom_site_symmetry_multiplicity
  _atom_site_fract_x
  _atom_site_fract_y
  _atom_site_fract_z
  _atom_site_occupancy
  Sr  Sr1       1.0  0.24999999202674686  0.25000004320866015  0.25000001678038114  1.0000
  Sr  Sr2       1.0  0.7499999743430213  0.7500000437100764  0.7499999030088549  1.0000
  Ir  Ir1       1.0  1.9064318561018565e-08  0.9999999914084107  5.439116618088366e-08  1.0000
  F   F1        1.0  0.2558697003505091  0.2558696474709575  0.7441303192550094  1.0000
  F   F2        1.0  0.7441303543461922  0.7441303384965957  0.25586966121262883  1.0000
  F   F3        1.0  0.7441302947381172  0.2558696791915271  0.2558697013952684  1.0000
  F   F4        1.0  0.2558697477064787  0.7441302767054602  0.7441302721736909  1.0000
  F   F5        1.0  0.25586971593568614  0.7441302773651942  0.25586970955073085  1.0000
  F   F6        1.0  0.7441302499041863  0.2558696957149731  0.7441303270502684  1.0000
