data_image0
_chemical_formula_structural       Sr2MoI6
_chemical_formula_sum              "Sr2 Mo1 I6"
_cell_length_a       7.929407069032159
_cell_length_b       7.929406827926334
_cell_length_c       7.929406711790195
_cell_angle_alpha    60.0000016264176
_cell_angle_beta     60.00000078520651
_cell_angle_gamma    59.999997031666275

_space_group_name_H-M_alt    "P 1"
_space_group_IT_number       1

loop_
  _space_group_symop_operation_xyz
  'x, y, z'

loop_
  _atom_site_type_symbol
  _atom_site_label
  _atom_site_symmetry_multiplicity
  _atom_site_fract_x
  _atom_site_fract_y
  _atom_site_fract_z
  _atom_site_occupancy
  Sr  Sr1       1.0  0.249999973583674  0.25000006422098614  0.24999996604595032  1.0000
  Sr  Sr2       1.0  0.7500000204104708  0.7499999810581655  0.75000006508982  1.0000
  Mo  Mo1       1.0  8.560685921276765e-09  9.267359420696163e-09  0.9999997766941493  1.0000
  I   I1        1.0  0.2512006781292008  0.2512006882154088  0.7487992959919773  1.0000
  I   I2        1.0  0.7487992945970431  0.7487992504890667  0.2512007208751197  1.0000
  I   I3        1.0  0.7487993302274332  0.25120072533700727  0.25120065116543167  1.0000
  I   I4        1.0  0.25120056279999886  0.7487994218831429  0.7487994160559206  1.0000
  I   I5        1.0  0.2512007317595828  0.7487992751053575  0.25120069002797174  1.0000
  I   I6        1.0  0.7487994027415056  0.25120058019284613  0.7487994200733196  1.0000
