data_image0
_chemical_formula_structural       Sr2NCl6
_chemical_formula_sum              "Sr2 N1 Cl6"
_cell_length_a       6.593710615541759
_cell_length_b       6.593710349987327
_cell_length_c       6.593710237251824
_cell_angle_alpha    59.999999168681676
_cell_angle_beta     60.00000196051142
_cell_angle_gamma    59.999999239669776

_space_group_name_H-M_alt    "P 1"
_space_group_IT_number       1

loop_
  _space_group_symop_operation_xyz
  'x, y, z'

loop_
  _atom_site_type_symbol
  _atom_site_label
  _atom_site_symmetry_multiplicity
  _atom_site_fract_x
  _atom_site_fract_y
  _atom_site_fract_z
  _atom_site_occupancy
  Sr  Sr1       1.0  0.24999994960900337  0.24999999078088905  0.24999998806110074  1.0000
  Sr  Sr2       1.0  0.7500000185886398  0.7499999779149982  0.749999970545325  1.0000
  N   N1        1.0  2.5523977821192344e-06  0.999999372183805  2.873182580571664e-06  1.0000
  Cl  Cl1       1.0  0.24784050537964664  0.24784053857173688  0.7521593819130379  1.0000
  Cl  Cl2       1.0  0.7521586442179498  0.7521586444252637  0.24784126206490728  1.0000
  Cl  Cl3       1.0  0.7521595161277118  0.2478404943007163  0.24784031346385607  1.0000
  Cl  Cl4       1.0  0.24784125767782134  0.7521586756941896  0.7521586043368972  1.0000
  Cl  Cl5       1.0  0.24783968004111553  0.7521602291933783  0.24783973820968713  1.0000
  Cl  Cl6       1.0  0.7521578518934544  0.24784208359710383  0.7521578899737296  1.0000
