data_image0
_chemical_formula_structural       Sr2NF6
_chemical_formula_sum              "Sr2 N1 F6"
_cell_length_a       5.371306661258961
_cell_length_b       5.371306496474516
_cell_length_c       5.371306647999643
_cell_angle_alpha    60.00000002289162
_cell_angle_beta     59.99999931613237
_cell_angle_gamma    60.00000009694725

_space_group_name_H-M_alt    "P 1"
_space_group_IT_number       1

loop_
  _space_group_symop_operation_xyz
  'x, y, z'

loop_
  _atom_site_type_symbol
  _atom_site_label
  _atom_site_symmetry_multiplicity
  _atom_site_fract_x
  _atom_site_fract_y
  _atom_site_fract_z
  _atom_site_occupancy
  Sr  Sr1       1.0  0.24999997242453675  0.25000002315989134  0.25000003347279276  1.0000
  Sr  Sr2       1.0  0.7499999943407807  0.749999973712871  0.7499999906165529  1.0000
  N   N1        1.0  2.0975954053290165e-08  2.736194343246697e-08  0.9999999627988406  1.0000
  F   F1        1.0  0.2389586940990449  0.2389587173429671  0.7610413396773908  1.0000
  F   F2        1.0  0.7610412765969464  0.7610412612885  0.2389587325256415  1.0000
  F   F3        1.0  0.7610412826599843  0.238958745304303  0.23895872841297905  1.0000
  F   F4        1.0  0.23895873341934537  0.7610412584089451  0.761041247119929  1.0000
  F   F5        1.0  0.23895874489580993  0.7610412489600543  0.23895877646267996  1.0000
  F   F6        1.0  0.7610412775247606  0.2389587228309268  0.7610412379251625  1.0000
