data_image0
_chemical_formula_structural       Sr2PCl6
_chemical_formula_sum              "Sr2 P1 Cl6"
_cell_length_a       7.015983926107437
_cell_length_b       7.015984125265582
_cell_length_c       7.015983674650882
_cell_angle_alpha    60.00000049870419
_cell_angle_beta     60.000001070036376
_cell_angle_gamma    60.00000076351287

_space_group_name_H-M_alt    "P 1"
_space_group_IT_number       1

loop_
  _space_group_symop_operation_xyz
  'x, y, z'

loop_
  _atom_site_type_symbol
  _atom_site_label
  _atom_site_symmetry_multiplicity
  _atom_site_fract_x
  _atom_site_fract_y
  _atom_site_fract_z
  _atom_site_occupancy
  Sr  Sr1       1.0  0.24999993843568707  0.25000004071417514  0.2500000174932201  1.0000
  Sr  Sr2       1.0  0.750000071540693  0.750000005184014  0.7499999814167845  1.0000
  P   P1        1.0  1.2584923429589625e-07  0.9999998446372009  3.898717123955147e-08  1.0000
  Cl  Cl1       1.0  0.2576974404487453  0.2576974082365752  0.7423025901319787  1.0000
  Cl  Cl2       1.0  0.7423026302402145  0.7423026184594703  0.2576973666430544  1.0000
  Cl  Cl3       1.0  0.7423025901797518  0.2576973769494011  0.2576974370326737  1.0000
  Cl  Cl4       1.0  0.25769732746562585  0.742302620070604  0.7423026481604106  1.0000
  Cl  Cl5       1.0  0.25769732656924604  0.7423026392649569  0.257697342353691  1.0000
  Cl  Cl6       1.0  0.7423025443600665  0.25769744852882087  0.7423025668763147  1.0000
