data_image0
_chemical_formula_structural       Sr2PBr6
_chemical_formula_sum              "Sr2 P1 Br6"
_cell_length_a       7.336729924860837
_cell_length_b       7.33672997193671
_cell_length_c       7.336730077545236
_cell_angle_alpha    59.99999990572502
_cell_angle_beta     59.999999898559814
_cell_angle_gamma    59.99999973880928

_space_group_name_H-M_alt    "P 1"
_space_group_IT_number       1

loop_
  _space_group_symop_operation_xyz
  'x, y, z'

loop_
  _atom_site_type_symbol
  _atom_site_label
  _atom_site_symmetry_multiplicity
  _atom_site_fract_x
  _atom_site_fract_y
  _atom_site_fract_z
  _atom_site_occupancy
  Sr  Sr1       1.0  0.25000002310030145  0.25000000981230835  0.24999995555543886  1.0000
  Sr  Sr2       1.0  0.7499999305145769  0.7500000444609268  0.7500000539439416  1.0000
  P   P1        1.0  0.9999999973132483  3.338666867586693e-09  0.9999999833179821  1.0000
  Br  Br1       1.0  0.25808614278044095  0.2580861051372998  0.7419138700874552  1.0000
  Br  Br2       1.0  0.7419138834558225  0.7419138823625974  0.2580861105908065  1.0000
  Br  Br3       1.0  0.7419139076497617  0.2580860979551856  0.25808608334567085  1.0000
  Br  Br4       1.0  0.2580860960914506  0.7419138862060446  0.7419139306945252  1.0000
  Br  Br5       1.0  0.25808611662167674  0.7419138868539399  0.25808608093440916  1.0000
  Br  Br6       1.0  0.7419138930494834  0.25808608896062313  0.7419139315881365  1.0000
