data_image0
_chemical_formula_structural       Sr2RhI6
_chemical_formula_sum              "Sr2 Rh1 I6"
_cell_length_a       7.788944145616281
_cell_length_b       7.788944303003114
_cell_length_c       7.788944489333945
_cell_angle_alpha    59.99999864090242
_cell_angle_beta     59.999999978740966
_cell_angle_gamma    60.000001175380696

_space_group_name_H-M_alt    "P 1"
_space_group_IT_number       1

loop_
  _space_group_symop_operation_xyz
  'x, y, z'

loop_
  _atom_site_type_symbol
  _atom_site_label
  _atom_site_symmetry_multiplicity
  _atom_site_fract_x
  _atom_site_fract_y
  _atom_site_fract_z
  _atom_site_occupancy
  Sr  Sr1       1.0  0.24999991103797348  0.2500000114617033  0.25000003209295746  1.0000
  Sr  Sr2       1.0  0.7500000592455445  0.7500000611161612  0.7499999596475393  1.0000
  Rh  Rh1       1.0  2.195208840784729e-08  4.088277589712974e-08  4.818257030504035e-08  1.0000
  I   I1        1.0  0.24524378540267935  0.2452437378229947  0.7547562246801263  1.0000
  I   I2        1.0  0.754756203467243  0.7547561633616922  0.2452438177863378  1.0000
  I   I3        1.0  0.75475625679039  0.2452437638032375  0.24524378411768039  1.0000
  I   I4        1.0  0.24524381193852401  0.754756173546984  0.7547561797945851  1.0000
  I   I5        1.0  0.2452437643953329  0.7547562362027951  0.24524378639003933  1.0000
  I   I6        1.0  0.7547561901203981  0.24524380807160934  0.7547561670441434  1.0000
