data_image0
_chemical_formula_structural       Sr2RuI6
_chemical_formula_sum              "Sr2 Ru1 I6"
_cell_length_a       7.794731240049647
_cell_length_b       7.794731329282507
_cell_length_c       7.7947312814701615
_cell_angle_alpha    59.99999952349771
_cell_angle_beta     60.000000419850245
_cell_angle_gamma    60.00000106626772

_space_group_name_H-M_alt    "P 1"
_space_group_IT_number       1

loop_
  _space_group_symop_operation_xyz
  'x, y, z'

loop_
  _atom_site_type_symbol
  _atom_site_label
  _atom_site_symmetry_multiplicity
  _atom_site_fract_x
  _atom_site_fract_y
  _atom_site_fract_z
  _atom_site_occupancy
  Sr  Sr1       1.0  0.24999995539769457  0.24999995100124153  0.25000007220629766  1.0000
  Sr  Sr2       1.0  0.7500000658925415  0.7500000494096106  0.7499999557032455  1.0000
  Ru  Ru1       1.0  1.123747833715088e-08  6.284987472303128e-09  8.360885326544769e-08  1.0000
  I   I1        1.0  0.2471138781515831  0.2471138872386223  0.7528861220914996  1.0000
  I   I2        1.0  0.7528861337265879  0.7528861147434773  0.24711386098757374  1.0000
  I   I3        1.0  0.7528861329083495  0.2471138643232919  0.24711384100695857  1.0000
  I   I4        1.0  0.247113874302332  0.7528860716664315  0.7528861248024155  1.0000
  I   I5        1.0  0.24711384199436282  0.7528861772600536  0.2471138482143989  1.0000
  I   I6        1.0  0.7528861061533774  0.2471138781444459  0.7528860912678105  1.0000
