data_image0
_chemical_formula_structural       Sr2RuBr6
_chemical_formula_sum              "Sr2 Ru1 Br6"
_cell_length_a       7.178810991195977
_cell_length_b       7.178811062573047
_cell_length_c       7.178811022439134
_cell_angle_alpha    59.999999333856586
_cell_angle_beta     60.000001629514735
_cell_angle_gamma    59.99999832065617

_space_group_name_H-M_alt    "P 1"
_space_group_IT_number       1

loop_
  _space_group_symop_operation_xyz
  'x, y, z'

loop_
  _atom_site_type_symbol
  _atom_site_label
  _atom_site_symmetry_multiplicity
  _atom_site_fract_x
  _atom_site_fract_y
  _atom_site_fract_z
  _atom_site_occupancy
  Sr  Sr1       1.0  0.2500000348846852  0.25000005675507914  0.24999992232127827  1.0000
  Sr  Sr2       1.0  0.7499999187557468  0.7499999655385983  0.7500001405788143  1.0000
  Ru  Ru1       1.0  1.512477629276849e-07  0.9999999129911691  3.2866451487555794e-07  1.0000
  Br  Br1       1.0  0.24652726791659615  0.24652721776883685  0.7534727836098615  1.0000
  Br  Br2       1.0  0.7534726782027519  0.7534727209281292  0.2465273304210825  1.0000
  Br  Br3       1.0  0.7534728511922253  0.24652710589489937  0.2465272297034823  1.0000
  Br  Br4       1.0  0.24652733677133337  0.753472662196533  0.7534725728964375  1.0000
  Br  Br5       1.0  0.24652711093403468  0.7534729843990678  0.24652713938125917  1.0000
  Br  Br6       1.0  0.7534726378544375  0.24652737739962982  0.7534725608787716  1.0000
