data_image0
_chemical_formula_structural       Sr2RhCl6
_chemical_formula_sum              "Sr2 Rh1 Cl6"
_cell_length_a       6.839311134008272
_cell_length_b       6.839310971230473
_cell_length_c       6.83931086993358
_cell_angle_alpha    60.00000044817164
_cell_angle_beta     60.00000093473148
_cell_angle_gamma    60.000000884155824

_space_group_name_H-M_alt    "P 1"
_space_group_IT_number       1

loop_
  _space_group_symop_operation_xyz
  'x, y, z'

loop_
  _atom_site_type_symbol
  _atom_site_label
  _atom_site_symmetry_multiplicity
  _atom_site_fract_x
  _atom_site_fract_y
  _atom_site_fract_z
  _atom_site_occupancy
  Sr  Sr1       1.0  0.24999995307455164  0.24999999005995183  0.25000001820765083  1.0000
  Sr  Sr2       1.0  0.7500000700599129  0.749999980924316  0.7499999321355076  1.0000
  Rh  Rh1       1.0  0.9999998625606049  1.5400390156864699e-07  0.9999996949042174  1.0000
  Cl  Cl1       1.0  0.24505294463853383  0.24505292482786745  0.754947055791993  1.0000
  Cl  Cl2       1.0  0.7549470237700838  0.754947053319372  0.2450529461131799  1.0000
  Cl  Cl3       1.0  0.7549469684195558  0.24505299606643133  0.24505305497253155  1.0000
  Cl  Cl4       1.0  0.2450528947303245  0.7549471307124812  0.7549470919296339  1.0000
  Cl  Cl5       1.0  0.2450530837651052  0.7549469082418372  0.24505308184865346  1.0000
  Cl  Cl6       1.0  0.7549472067427929  0.2450528532254952  0.7549471378419206  1.0000
