data_image0
_chemical_formula_structural       Sr2RhBr6
_chemical_formula_sum              "Sr2 Rh1 Br6"
_cell_length_a       7.166909080232964
_cell_length_b       7.166908969770917
_cell_length_c       7.166909070210416
_cell_angle_alpha    60.00000068561679
_cell_angle_beta     59.999999515023596
_cell_angle_gamma    60.00000069605588

_space_group_name_H-M_alt    "P 1"
_space_group_IT_number       1

loop_
  _space_group_symop_operation_xyz
  'x, y, z'

loop_
  _atom_site_type_symbol
  _atom_site_label
  _atom_site_symmetry_multiplicity
  _atom_site_fract_x
  _atom_site_fract_y
  _atom_site_fract_z
  _atom_site_occupancy
  Sr  Sr1       1.0  0.24999995715587703  0.24999995979898937  0.2500000531402276  1.0000
  Sr  Sr2       1.0  0.7500000234020431  0.7500000229436058  0.7499999586586963  1.0000
  Rh  Rh1       1.0  7.712898475594981e-08  0.999999700944506  9.980083857160973e-08  1.0000
  Br  Br1       1.0  0.24604110455980238  0.24604106723252953  0.7539589110376586  1.0000
  Br  Br2       1.0  0.7539590564782009  0.7539590265878222  0.24604095079644075  1.0000
  Br  Br3       1.0  0.7539589171369845  0.24604107250809143  0.24604110619336855  1.0000
  Br  Br4       1.0  0.2460409716157276  0.7539590213122606  0.7539590620101779  1.0000
  Br  Br5       1.0  0.24604105026179102  0.7539589675356685  0.24604096740935555  1.0000
  Br  Br6       1.0  0.7539588480433563  0.24604116046245003  0.7539588831251418  1.0000
