data_image0
_chemical_formula_structural       Sr2RuCl6
_chemical_formula_sum              "Sr2 Ru1 Cl6"
_cell_length_a       6.835215229970074
_cell_length_b       6.835215206623356
_cell_length_c       6.835215128122089
_cell_angle_alpha    60.00000065747392
_cell_angle_beta     60.00000063247521
_cell_angle_gamma    60.000000178010005

_space_group_name_H-M_alt    "P 1"
_space_group_IT_number       1

loop_
  _space_group_symop_operation_xyz
  'x, y, z'

loop_
  _atom_site_type_symbol
  _atom_site_label
  _atom_site_symmetry_multiplicity
  _atom_site_fract_x
  _atom_site_fract_y
  _atom_site_fract_z
  _atom_site_occupancy
  Sr  Sr1       1.0  0.24999999857509997  0.24999999014199104  0.2500000102244691  1.0000
  Sr  Sr2       1.0  0.7499999954002905  0.7500000170131916  0.7499999797450797  1.0000
  Ru  Ru1       1.0  2.923116549709237e-08  0.9999999731227583  0.9999999739518384  1.0000
  Cl  Cl1       1.0  0.24674544448787125  0.2467454334548714  0.7532545576921892  1.0000
  Cl  Cl2       1.0  0.7532545529686758  0.7532545683248631  0.24674544053956426  1.0000
  Cl  Cl3       1.0  0.7532545542121928  0.246745440604316  0.2467454426831076  1.0000
  Cl  Cl4       1.0  0.24674542027575408  0.7532545844690279  0.7532545904984231  1.0000
  Cl  Cl5       1.0  0.24674543263319404  0.7532545705997312  0.24674541998395438  1.0000
  Cl  Cl6       1.0  0.7532545723829381  0.2467454186372906  0.7532545865914099  1.0000
