data_image0
_chemical_formula_structural       Sr2SbBr6
_chemical_formula_sum              "Sr2 Sb1 Br6"
_cell_length_a       7.541872618375705
_cell_length_b       7.5418726944425165
_cell_length_c       7.541872579120388
_cell_angle_alpha    59.99999991441909
_cell_angle_beta     60.00000032564608
_cell_angle_gamma    60.000000374901504

_space_group_name_H-M_alt    "P 1"
_space_group_IT_number       1

loop_
  _space_group_symop_operation_xyz
  'x, y, z'

loop_
  _atom_site_type_symbol
  _atom_site_label
  _atom_site_symmetry_multiplicity
  _atom_site_fract_x
  _atom_site_fract_y
  _atom_site_fract_z
  _atom_site_occupancy
  Sr  Sr1       1.0  0.2500000619633906  0.24999996473524538  0.2499999858815773  1.0000
  Sr  Sr2       1.0  0.7499999698710468  0.7499999818977793  0.7500000231342031  1.0000
  Sb  Sb1       1.0  0.9999999729823581  0.9999999983760733  0.9999999931058939  1.0000
  Br  Br1       1.0  0.2619661734106189  0.2619661884337733  0.7380338315867164  1.0000
  Br  Br2       1.0  0.7380338282962674  0.7380338393955881  0.261966173109561  1.0000
  Br  Br3       1.0  0.7380338419415431  0.2619661619979748  0.26196617252314547  1.0000
  Br  Br4       1.0  0.2619661904952079  0.738033833352852  0.7380338038769929  1.0000
  Br  Br5       1.0  0.2619661618481288  0.7380338481880973  0.26196616546891843  1.0000
  Br  Br6       1.0  0.7380337954582258  0.26196617964126406  0.7380338441905263  1.0000
