data_image0
_chemical_formula_structural       Sr2SbCl6
_chemical_formula_sum              "Sr2 Sb1 Cl6"
_cell_length_a       7.232442953905439
_cell_length_b       7.2324429613630254
_cell_length_c       7.232442655999599
_cell_angle_alpha    59.99999831358044
_cell_angle_beta     59.999998439630374
_cell_angle_gamma    59.999998527791014

_space_group_name_H-M_alt    "P 1"
_space_group_IT_number       1

loop_
  _space_group_symop_operation_xyz
  'x, y, z'

loop_
  _atom_site_type_symbol
  _atom_site_label
  _atom_site_symmetry_multiplicity
  _atom_site_fract_x
  _atom_site_fract_y
  _atom_site_fract_z
  _atom_site_occupancy
  Sr  Sr1       1.0  0.2499998809728856  0.24999999370286716  0.24999989258530858  1.0000
  Sr  Sr2       1.0  0.7499999306169338  0.7500002435862339  0.7499998271441896  1.0000
  Sb  Sb1       1.0  1.9352368462944287e-08  0.9999999898395668  3.369207392353399e-07  1.0000
  Cl  Cl1       1.0  0.2610802113687025  0.26107996571014813  0.7389200093931801  1.0000
  Cl  Cl2       1.0  0.7389198813342627  0.7389199024168366  0.26108016086247327  1.0000
  Cl  Cl3       1.0  0.7389200559470084  0.2610800048922866  0.26108008037574165  1.0000
  Cl  Cl4       1.0  0.2610801554352468  0.7389197514700286  0.7389198845544264  1.0000
  Cl  Cl5       1.0  0.2610799813199008  0.73891997118181  0.26108003856270395  1.0000
  Cl  Cl6       1.0  0.7389198942788838  0.2610801746634648  0.7389197681651383  1.0000
