data_image0
_chemical_formula_structural       Sr2SbI6
_chemical_formula_sum              "Sr2 Sb1 I6"
_cell_length_a       8.14680398481868
_cell_length_b       8.146803913722042
_cell_length_c       8.14680409691727
_cell_angle_alpha    60.00000050526946
_cell_angle_beta     59.99999860025045
_cell_angle_gamma    59.99999898386913

_space_group_name_H-M_alt    "P 1"
_space_group_IT_number       1

loop_
  _space_group_symop_operation_xyz
  'x, y, z'

loop_
  _atom_site_type_symbol
  _atom_site_label
  _atom_site_symmetry_multiplicity
  _atom_site_fract_x
  _atom_site_fract_y
  _atom_site_fract_z
  _atom_site_occupancy
  Sr  Sr1       1.0  0.24999991770751512  0.2499999521732549  0.25000014192768233  1.0000
  Sr  Sr2       1.0  0.7500001129738594  0.7499999888140269  0.7499998937085355  1.0000
  Sb  Sb1       1.0  4.0801433656034456e-09  9.020064076507564e-09  4.497173147978515e-09  1.0000
  I   I1        1.0  0.26060959888758944  0.2606096096709242  0.7393904138836188  1.0000
  I   I2        1.0  0.7393903714758485  0.7393903974634936  0.26060962129295057  1.0000
  I   I3        1.0  0.7393904335007508  0.2606095960798826  0.26060958908942927  1.0000
  I   I4        1.0  0.260609613329243  0.7393903900077178  0.7393903692782622  1.0000
  I   I5        1.0  0.26060955932453117  0.7393904296260808  0.2606096112047296  1.0000
  I   I6        1.0  0.7393903874152916  0.2606096271186879  0.7393903532871383  1.0000
