data_image0
_chemical_formula_structural       Sr2SbF6
_chemical_formula_sum              "Sr2 Sb1 F6"
_cell_length_a       6.033293694763331
_cell_length_b       6.033293989547278
_cell_length_c       6.03329351143774
_cell_angle_alpha    60.00000050148907
_cell_angle_beta     59.999999803861336
_cell_angle_gamma    59.99999944498172

_space_group_name_H-M_alt    "P 1"
_space_group_IT_number       1

loop_
  _space_group_symop_operation_xyz
  'x, y, z'

loop_
  _atom_site_type_symbol
  _atom_site_label
  _atom_site_symmetry_multiplicity
  _atom_site_fract_x
  _atom_site_fract_y
  _atom_site_fract_z
  _atom_site_occupancy
  Sr  Sr1       1.0  0.24999995096215616  0.24999999876068568  0.24999998973870569  1.0000
  Sr  Sr2       1.0  0.7500001043213609  0.7499999252328525  0.7499999602392777  1.0000
  Sb  Sb1       1.0  0.9999998230903654  7.713913283028319e-08  5.8172598778200554e-08  1.0000
  F   F1        1.0  0.26252934955665574  0.2625293769102098  0.737470619993955  1.0000
  F   F2        1.0  0.7374706645866729  0.7374706303123888  0.2625293752383716  1.0000
  F   F3        1.0  0.7374706772744742  0.26252935272607314  0.26252933576101284  1.0000
  F   F4        1.0  0.26252936617746825  0.737470589537258  0.7374706623794156  1.0000
  F   F5        1.0  0.2625293560040743  0.73747060285504  0.2625294310182601  1.0000
  F   F6        1.0  0.7374706782830921  0.2625294185773969  0.73747060670613  1.0000
