data_image0
_chemical_formula_structural       Sr2TlBr6
_chemical_formula_sum              "Sr2 Tl1 Br6"
_cell_length_a       7.447504028370639
_cell_length_b       7.447504022893574
_cell_length_c       7.447504089774583
_cell_angle_alpha    59.99999955950081
_cell_angle_beta     59.999999789421565
_cell_angle_gamma    60.00000031385035

_space_group_name_H-M_alt    "P 1"
_space_group_IT_number       1

loop_
  _space_group_symop_operation_xyz
  'x, y, z'

loop_
  _atom_site_type_symbol
  _atom_site_label
  _atom_site_symmetry_multiplicity
  _atom_site_fract_x
  _atom_site_fract_y
  _atom_site_fract_z
  _atom_site_occupancy
  Sr  Sr1       1.0  0.2500000001426008  0.25000001736016586  0.249999998495222  1.0000
  Sr  Sr2       1.0  0.7500000138659848  0.7499999978118719  0.7499999984453752  1.0000
  Tl  Tl1       1.0  0.9999999530161547  2.4667556831258732e-08  2.1899997964302134e-08  1.0000
  Br  Br1       1.0  0.2621870470033451  0.2621870477929426  0.7378129471001585  1.0000
  Br  Br2       1.0  0.7378129753997246  0.7378129608010799  0.2621870261057652  1.0000
  Br  Br3       1.0  0.7378129629106687  0.26218703328052584  0.2621870248371476  1.0000
  Br  Br4       1.0  0.2621870383503625  0.737812945712428  0.7378129764257931  1.0000
  Br  Br5       1.0  0.26218704496151374  0.7378129482420119  0.2621870323056273  1.0000
  Br  Br6       1.0  0.7378129651481184  0.2621870274619342  0.7378129728911752  1.0000
