data_image0
_chemical_formula_structural       Sr2TlI6
_chemical_formula_sum              "Sr2 Tl1 I6"
_cell_length_a       8.029471216201138
_cell_length_b       8.029471198686416
_cell_length_c       8.029471222822092
_cell_angle_alpha    59.99999994672064
_cell_angle_beta     60.000000684388915
_cell_angle_gamma    59.999998483038446

_space_group_name_H-M_alt    "P 1"
_space_group_IT_number       1

loop_
  _space_group_symop_operation_xyz
  'x, y, z'

loop_
  _atom_site_type_symbol
  _atom_site_label
  _atom_site_symmetry_multiplicity
  _atom_site_fract_x
  _atom_site_fract_y
  _atom_site_fract_z
  _atom_site_occupancy
  Sr  Sr1       1.0  0.24999999475790888  0.24999997578216185  0.25000002968557017  1.0000
  Sr  Sr2       1.0  0.7500000035045408  0.7500000249664536  0.7499999845510749  1.0000
  Tl  Tl1       1.0  2.3009247120580484e-08  0.9999999999999996  1.215820523243714e-08  1.0000
  I   I1        1.0  0.263718019751571  0.2637179686368286  0.7362820368545948  1.0000
  I   I2        1.0  0.736281979019316  0.7362820305864747  0.26371799283543185  1.0000
  I   I3        1.0  0.7362820422322645  0.263717956171089  0.26371797329767277  1.0000
  I   I4        1.0  0.2637180119706911  0.7362820018687893  0.7362820019423755  1.0000
  I   I5        1.0  0.2637179224494372  0.7362820272973505  0.26371799275832264  1.0000
  I   I6        1.0  0.736282000247852  0.2637180146346906  0.7362819776440003  1.0000
