data_image0
_chemical_formula_structural       Sr2TlCl6
_chemical_formula_sum              "Sr2 Tl1 Cl6"
_cell_length_a       7.092999968772018
_cell_length_b       7.092999780199175
_cell_length_c       7.0929999275103555
_cell_angle_alpha    59.99999951616112
_cell_angle_beta     59.9999985212265
_cell_angle_gamma    59.999999299503465

_space_group_name_H-M_alt    "P 1"
_space_group_IT_number       1

loop_
  _space_group_symop_operation_xyz
  'x, y, z'

loop_
  _atom_site_type_symbol
  _atom_site_label
  _atom_site_symmetry_multiplicity
  _atom_site_fract_x
  _atom_site_fract_y
  _atom_site_fract_z
  _atom_site_occupancy
  Sr  Sr1       1.0  0.24999992967682644  0.25000000176802667  0.2500000422532267  1.0000
  Sr  Sr2       1.0  0.7500000192448768  0.7499999983972993  0.7499999671712847  1.0000
  Tl  Tl1       1.0  0.9999999828656864  0.9999999879131332  0.9999999793645729  1.0000
  Cl  Cl1       1.0  0.260840013736834  0.26084003118256965  0.739159987685946  1.0000
  Cl  Cl2       1.0  0.7391600461304735  0.7391600415039561  0.26083997371022394  1.0000
  Cl  Cl3       1.0  0.7391599859276752  0.2608399716479507  0.2608400214625608  1.0000
  Cl  Cl4       1.0  0.26084002707634546  0.7391599974368619  0.7391599897889771  1.0000
  Cl  Cl5       1.0  0.26084000416102066  0.7391599536005428  0.2608400422437156  1.0000
  Cl  Cl6       1.0  0.7391599975461438  0.26084001030418436  0.7391600040332663  1.0000
