data_image0
_chemical_formula_structural       Sr2TaI6
_chemical_formula_sum              "Sr2 Ta1 I6"
_cell_length_a       8.094879273804784
_cell_length_b       8.09487936628946
_cell_length_c       8.094879119779717
_cell_angle_alpha    59.99999971982814
_cell_angle_beta     60.00000080611216
_cell_angle_gamma    59.99999896264108

_space_group_name_H-M_alt    "P 1"
_space_group_IT_number       1

loop_
  _space_group_symop_operation_xyz
  'x, y, z'

loop_
  _atom_site_type_symbol
  _atom_site_label
  _atom_site_symmetry_multiplicity
  _atom_site_fract_x
  _atom_site_fract_y
  _atom_site_fract_z
  _atom_site_occupancy
  Sr  Sr1       1.0  0.2499999993763115  0.25000000264510563  0.24999994007804502  1.0000
  Sr  Sr2       1.0  0.7499999984602065  0.7500000155002498  0.7500000201186007  1.0000
  Ta  Ta1       1.0  0.9999999819306821  4.9928577934671764e-08  0.9999999618340893  1.0000
  I   I1        1.0  0.2501475362279326  0.25014757178206504  0.7498524550403117  1.0000
  I   I2        1.0  0.7498524365380463  0.7498524145905593  0.2501475644616918  1.0000
  I   I3        1.0  0.7498524470106266  0.25014757927219555  0.250147554048833  1.0000
  I   I4        1.0  0.2501475847444597  0.7498524055874409  0.7498524379504597  1.0000
  I   I5        1.0  0.2501475410971017  0.7498524525523366  0.25014758707214124  1.0000
  I   I6        1.0  0.7498524769125804  0.25014750507352956  0.7498524896548817  1.0000
