data_image0
_chemical_formula_structural       Sr2TlF6
_chemical_formula_sum              "Sr2 Tl1 F6"
_cell_length_a       6.012503002375091
_cell_length_b       6.0125030114111855
_cell_length_c       6.012502763264712
_cell_angle_alpha    60.00000007854187
_cell_angle_beta     60.000000948731824
_cell_angle_gamma    60.000000930452615

_space_group_name_H-M_alt    "P 1"
_space_group_IT_number       1

loop_
  _space_group_symop_operation_xyz
  'x, y, z'

loop_
  _atom_site_type_symbol
  _atom_site_label
  _atom_site_symmetry_multiplicity
  _atom_site_fract_x
  _atom_site_fract_y
  _atom_site_fract_z
  _atom_site_occupancy
  Sr  Sr1       1.0  0.25000004593212954  0.24999998297104664  0.24999994722556412  1.0000
  Sr  Sr2       1.0  0.7500000160859855  0.750000020208022  0.7499999201068811  1.0000
  Tl  Tl1       1.0  0.9999999626185146  0.9999999796300341  0.9999999390628774  1.0000
  F   F1        1.0  0.2644580323403782  0.26445801468507  0.7355420358411122  1.0000
  F   F2        1.0  0.735541934235282  0.7355419579390449  0.2644581023901502  1.0000
  F   F3        1.0  0.7355420385726615  0.2644580215763569  0.2644580988032848  1.0000
  F   F4        1.0  0.2644581329738524  0.7355418777158794  0.7355419519868786  1.0000
  F   F5        1.0  0.2644579885248817  0.7355420224501671  0.26445808186158853  1.0000
  F   F6        1.0  0.7355418574054143  0.26445813350364966  0.7355419235722489  1.0000
