data_image0
_chemical_formula_structural       Ta2AsS6
_chemical_formula_sum              "Ta2 As1 S6"
_cell_length_a       6.198771725303903
_cell_length_b       6.198771563737632
_cell_length_c       6.19877189523904
_cell_angle_alpha    59.99999654935518
_cell_angle_beta     59.99999595708515
_cell_angle_gamma    59.99999551684284

_space_group_name_H-M_alt    "P 1"
_space_group_IT_number       1

loop_
  _space_group_symop_operation_xyz
  'x, y, z'

loop_
  _atom_site_type_symbol
  _atom_site_label
  _atom_site_symmetry_multiplicity
  _atom_site_fract_x
  _atom_site_fract_y
  _atom_site_fract_z
  _atom_site_occupancy
  Ta  Ta1       1.0  0.24999975219300377  0.24999998541482896  0.2499997691819941  1.0000
  Ta  Ta2       1.0  0.750000189038792  0.7500003889417063  0.7499999107060065  1.0000
  As  As1       1.0  4.688933843458962e-08  1.5806291485566874e-08  0.9999999315480599  1.0000
  S   S1        1.0  0.26416984619569034  0.2641701248289582  0.7358298733532069  1.0000
  S   S2        1.0  0.7358302721789282  0.735829751629375  0.26416961684314333  1.0000
  S   S3        1.0  0.7358303694559357  0.2641694301182673  0.2641705086647213  1.0000
  S   S4        1.0  0.2641698753141664  0.735829972151294  0.7358300927107086  1.0000
  S   S5        1.0  0.26416994114296133  0.7358303390978725  0.26416994603173394  1.0000
  S   S6        1.0  0.7358297033984927  0.2641699641303503  0.7358303920530976  1.0000
