data_image0
_chemical_formula_structural       Ta2AsF6
_chemical_formula_sum              "Ta2 As1 F6"
_cell_length_a       5.3416171692326895
_cell_length_b       5.824731621649435
_cell_length_c       4.626509768262093
_cell_angle_alpha    54.131310553273416
_cell_angle_beta     81.06556212453243
_cell_angle_gamma    106.0997449431432

_space_group_name_H-M_alt    "P 1"
_space_group_IT_number       1

loop_
  _space_group_symop_operation_xyz
  'x, y, z'

loop_
  _atom_site_type_symbol
  _atom_site_label
  _atom_site_symmetry_multiplicity
  _atom_site_fract_x
  _atom_site_fract_y
  _atom_site_fract_z
  _atom_site_occupancy
  Ta  Ta1       1.0  0.5954225276795717  0.10217952338515435  0.8631520176393352  1.0000
  Ta  Ta2       1.0  0.4406112467389802  0.44054184255830164  0.7889806397054987  1.0000
  As  As1       1.0  0.5269880352099092  0.5825634885949689  0.6212909711405632  1.0000
  F   F1        1.0  0.29865757905132795  0.17457500301171547  0.1191886432779874  1.0000
  F   F2        1.0  0.43803356917730407  0.43685872833658346  0.7933330465017074  1.0000
  F   F3        1.0  0.22272432042213275  0.2152813923175283  0.10609049368766055  1.0000
  F   F4        1.0  0.24861438767611088  0.15636417341165387  0.7977859827223269  1.0000
  F   F5        1.0  0.10944838535817314  0.2689400110978002  0.14533357972135996  1.0000
  F   F6        1.0  0.15318656572250666  0.6203102439240271  0.6103221080674259  1.0000
