data_image0
_chemical_formula_structural       Ta2AsSe6
_chemical_formula_sum              "Ta2 As1 Se6"
_cell_length_a       6.50305554268398
_cell_length_b       6.503055407116662
_cell_length_c       6.503055374897907
_cell_angle_alpha    60.00000075656138
_cell_angle_beta     60.00000038598908
_cell_angle_gamma    59.99999918175595

_space_group_name_H-M_alt    "P 1"
_space_group_IT_number       1

loop_
  _space_group_symop_operation_xyz
  'x, y, z'

loop_
  _atom_site_type_symbol
  _atom_site_label
  _atom_site_symmetry_multiplicity
  _atom_site_fract_x
  _atom_site_fract_y
  _atom_site_fract_z
  _atom_site_occupancy
  Ta  Ta1       1.0  0.2500001274097333  0.24999989070677806  0.2500000715329263  1.0000
  Ta  Ta2       1.0  0.7499999352477879  0.7500001128213336  0.7500000916444145  1.0000
  As  As1       1.0  6.690151632962469e-09  0.9999999905833118  0.9999999736839714  1.0000
  Se  Se1       1.0  0.2614522277678767  0.2614521392394943  0.7385478713490563  1.0000
  Se  Se2       1.0  0.7385478194475463  0.7385478360385523  0.26145216143823335  1.0000
  Se  Se3       1.0  0.7385477722039319  0.2614521906443658  0.2614521153487677  1.0000
  Se  Se4       1.0  0.2614521275419926  0.738547944717376  0.738547745055644  1.0000
  Se  Se5       1.0  0.26145218911006984  0.7385477561020166  0.2614521525933148  1.0000
  Se  Se6       1.0  0.7385477990265332  0.2614521513758763  0.7385478175388872  1.0000
