data_image0
_chemical_formula_structural       Ta2AsCl6
_chemical_formula_sum              "Ta2 As1 Cl6"
_cell_length_a       6.805892343894739
_cell_length_b       6.805893001814643
_cell_length_c       6.805892858647173
_cell_angle_alpha    60.00000148536862
_cell_angle_beta     59.99999892167086
_cell_angle_gamma    59.999999194609586

_space_group_name_H-M_alt    "P 1"
_space_group_IT_number       1

loop_
  _space_group_symop_operation_xyz
  'x, y, z'

loop_
  _atom_site_type_symbol
  _atom_site_label
  _atom_site_symmetry_multiplicity
  _atom_site_fract_x
  _atom_site_fract_y
  _atom_site_fract_z
  _atom_site_occupancy
  Ta  Ta1       1.0  0.24999854350389297  0.2500018760458389  0.24999936105800802  1.0000
  Ta  Ta2       1.0  0.7499996798269459  0.7499985649591497  0.7499993447299819  1.0000
  As  As1       1.0  1.7009121931943133e-07  0.9999999478134551  1.3499723523692137e-07  1.0000
  Cl  Cl1       1.0  0.2486820671434134  0.24868254636399445  0.7513176388318281  1.0000
  Cl  Cl2       1.0  0.7513184889859958  0.7513169480850661  0.24868316406391516  1.0000
  Cl  Cl3       1.0  0.7513181531166246  0.24868240799033145  0.24868216140401164  1.0000
  Cl  Cl4       1.0  0.24868263596112986  0.7513172376197321  0.7513181849603734  1.0000
  Cl  Cl5       1.0  0.24868258620703584  0.7513176299233544  0.24868212871812737  1.0000
  Cl  Cl6       1.0  0.7513176532716276  0.24868287046625806  0.751317891676866  1.0000
