data_image0
_chemical_formula_structural       Ta2AsO6
_chemical_formula_sum              "Ta2 As1 O6"
_cell_length_a       4.849317623813271
_cell_length_b       4.849317698618747
_cell_length_c       4.849317678642734
_cell_angle_alpha    59.99999979500008
_cell_angle_beta     60.00000034540533
_cell_angle_gamma    59.999999814531215

_space_group_name_H-M_alt    "P 1"
_space_group_IT_number       1

loop_
  _space_group_symop_operation_xyz
  'x, y, z'

loop_
  _atom_site_type_symbol
  _atom_site_label
  _atom_site_symmetry_multiplicity
  _atom_site_fract_x
  _atom_site_fract_y
  _atom_site_fract_z
  _atom_site_occupancy
  Ta  Ta1       1.0  0.24999999490397243  0.24999997843963528  0.2499999997476041  1.0000
  Ta  Ta2       1.0  0.7499999969767003  0.7500000413942091  0.7500000081235796  1.0000
  As  As1       1.0  0.9999999974743976  7.576807303351615e-09  1.3971563749207253e-08  1.0000
  O   O1        1.0  0.26120775428170445  0.26120767194774286  0.738792277600951  1.0000
  O   O2        1.0  0.7387922273768988  0.7387923428348965  0.2612077275961409  1.0000
  O   O3        1.0  0.7387923477307029  0.2612077244161519  0.2612076638199854  1.0000
  O   O4        1.0  0.26120770103372926  0.7387922676360651  0.7387922965058  1.0000
  O   O5        1.0  0.26120768728711224  0.7387922556284019  0.26120774316656276  1.0000
  O   O6        1.0  0.7387923000004625  0.26120771369339324  0.738792269573591  1.0000
