data_image0
_chemical_formula_structural       Ta2AsI6
_chemical_formula_sum              "Ta2 As1 I6"
_cell_length_a       7.694684486076452
_cell_length_b       7.694684425588263
_cell_length_c       7.694684574886978
_cell_angle_alpha    59.999998878345
_cell_angle_beta     59.999998842238206
_cell_angle_gamma    60.000000369333335

_space_group_name_H-M_alt    "P 1"
_space_group_IT_number       1

loop_
  _space_group_symop_operation_xyz
  'x, y, z'

loop_
  _atom_site_type_symbol
  _atom_site_label
  _atom_site_symmetry_multiplicity
  _atom_site_fract_x
  _atom_site_fract_y
  _atom_site_fract_z
  _atom_site_occupancy
  Ta  Ta1       1.0  0.24999990830113233  0.24999997851576258  0.24999999347003923  1.0000
  Ta  Ta2       1.0  0.7500000640938008  0.7500000119477668  0.7500000429311475  1.0000
  As  As1       1.0  0.9999999901170591  0.9999999936332936  3.2723312422400934e-10  1.0000
  I   I1        1.0  0.25936100493968683  0.2593610458317978  0.7406389754164698  1.0000
  I   I2        1.0  0.7406390345448337  0.7406389414483794  0.25936098614485087  1.0000
  I   I3        1.0  0.7406389874445122  0.2593610437220495  0.2593610696537054  1.0000
  I   I4        1.0  0.25936102155630203  0.7406389944917771  0.7406389466625652  1.0000
  I   I5        1.0  0.25936104151540507  0.7406389909233726  0.2593609999164475  1.0000
  I   I6        1.0  0.7406389392618222  0.2593610059068631  0.7406389940210814  1.0000
