data_image0
_chemical_formula_structural       Ta2BF6
_chemical_formula_sum              "Ta2 B1 F6"
_cell_length_a       4.850896189288648
_cell_length_b       4.235818095589847
_cell_length_c       3.881090065328821
_cell_angle_alpha    63.28756442950324
_cell_angle_beta     67.51712723005134
_cell_angle_gamma    66.7438417209785

_space_group_name_H-M_alt    "P 1"
_space_group_IT_number       1

loop_
  _space_group_symop_operation_xyz
  'x, y, z'

loop_
  _atom_site_type_symbol
  _atom_site_label
  _atom_site_symmetry_multiplicity
  _atom_site_fract_x
  _atom_site_fract_y
  _atom_site_fract_z
  _atom_site_occupancy
  Ta  Ta1       1.0  0.2536586270327984  0.18906693623583953  0.29138895075151733  1.0000
  Ta  Ta2       1.0  0.7208465784477335  0.7924614545606679  0.7921485692737041  1.0000
  B   B1        1.0  0.9589373748394651  0.06336711264449099  0.8246536528994625  1.0000
  F   F1        1.0  0.21026307444303285  0.33353332042034384  0.663777508489417  1.0000
  F   F2        1.0  0.7881697346301514  0.6699489695437455  0.37870328015525784  1.0000
  F   F3        1.0  0.7749072008795942  0.24900936271054053  0.17213784420164885  1.0000
  F   F4        1.0  0.2796715013119082  0.7173661007726959  0.8387533605641299  1.0000
  F   F5        1.0  0.40093793552501455  0.7387424679080395  0.2941697104764556  1.0000
  F   F6        1.0  0.6126190263377249  0.2464994975827691  0.7442521182323252  1.0000
