data_image0
_chemical_formula_structural       Ta2BI6
_chemical_formula_sum              "Ta2 B1 I6"
_cell_length_a       7.408913031986484
_cell_length_b       7.408913083805441
_cell_length_c       7.408913234272493
_cell_angle_alpha    59.999999419763235
_cell_angle_beta     59.99999941235436
_cell_angle_gamma    59.999999353146606

_space_group_name_H-M_alt    "P 1"
_space_group_IT_number       1

loop_
  _space_group_symop_operation_xyz
  'x, y, z'

loop_
  _atom_site_type_symbol
  _atom_site_label
  _atom_site_symmetry_multiplicity
  _atom_site_fract_x
  _atom_site_fract_y
  _atom_site_fract_z
  _atom_site_occupancy
  Ta  Ta1       1.0  0.24999998146329  0.24999998552411076  0.24999998661832093  1.0000
  Ta  Ta2       1.0  0.7500000312865459  0.7500001400630547  0.7499999407376674  1.0000
  B   B1        1.0  4.226936268880283e-08  0.9999999900815824  0.9999998852945574  1.0000
  I   I1        1.0  0.2503326748779243  0.25033281116741163  0.749667292263735  1.0000
  I   I2        1.0  0.7496672979822854  0.7496671722557706  0.25033277605890564  1.0000
  I   I3        1.0  0.7496672773499087  0.2503326702283103  0.2503328265482784  1.0000
  I   I4        1.0  0.25033272537631496  0.7496671908677235  0.7496672812563016  1.0000
  I   I5        1.0  0.2503326774149646  0.7496672785573978  0.2503328242055133  1.0000
  I   I6        1.0  0.7496672872582172  0.25033275280480205  0.7496671850990895  1.0000
