data_image0
_chemical_formula_structural       Ta2BeCl6
_chemical_formula_sum              "Ta2 Be1 Cl6"
_cell_length_a       6.467989571058023
_cell_length_b       6.467987627185277
_cell_length_c       6.467989750586042
_cell_angle_alpha    59.99999412822177
_cell_angle_beta     60.000000169235314
_cell_angle_gamma    60.00000251762785

_space_group_name_H-M_alt    "P 1"
_space_group_IT_number       1

loop_
  _space_group_symop_operation_xyz
  'x, y, z'

loop_
  _atom_site_type_symbol
  _atom_site_label
  _atom_site_symmetry_multiplicity
  _atom_site_fract_x
  _atom_site_fract_y
  _atom_site_fract_z
  _atom_site_occupancy
  Ta  Ta1       1.0  0.24999924707639248  0.25000315544504415  0.24999738701056587  1.0000
  Ta  Ta2       1.0  0.7500057963257175  0.7499992260249622  0.749997186854073  1.0000
  Be  Be1       1.0  0.9999997714535074  0.9999998769192849  0.9999997336360259  1.0000
  Cl  Cl1       1.0  0.23687717103574213  0.2368794580531024  0.7631221105896321  1.0000
  Cl  Cl2       1.0  0.7631214396048503  0.7631210450159464  0.23687858082583477  1.0000
  Cl  Cl3       1.0  0.7631215661721997  0.236877989542972  0.23687931009842572  1.0000
  Cl  Cl4       1.0  0.23687690709147705  0.7631205423419067  0.7631230926795638  1.0000
  Cl  Cl5       1.0  0.23687684720715965  0.7631206832729995  0.23688014496981724  1.0000
  Cl  Cl6       1.0  0.7631212236688377  0.2368779792666958  0.7631224756166027  1.0000
