data_image0
_chemical_formula_structural       Ta2BeI6
_chemical_formula_sum              "Ta2 Be1 I6"
_cell_length_a       7.386546720742125
_cell_length_b       7.386546698046425
_cell_length_c       7.3865467592372696
_cell_angle_alpha    60.00000008731679
_cell_angle_beta     59.99999963187384
_cell_angle_gamma    59.999998712794685

_space_group_name_H-M_alt    "P 1"
_space_group_IT_number       1

loop_
  _space_group_symop_operation_xyz
  'x, y, z'

loop_
  _atom_site_type_symbol
  _atom_site_label
  _atom_site_symmetry_multiplicity
  _atom_site_fract_x
  _atom_site_fract_y
  _atom_site_fract_z
  _atom_site_occupancy
  Ta  Ta1       1.0  0.2499999949135375  0.249999969844462  0.2499999936169255  1.0000
  Ta  Ta2       1.0  0.7499999926516788  0.7499999045591623  0.7500003273121906  1.0000
  Be  Be1       1.0  1.2015580356287077e-08  5.305840116661964e-08  0.9999999376791324  1.0000
  I   I1        1.0  0.2472897483259975  0.24728981381740156  0.752710245063529  1.0000
  I   I2        1.0  0.752710235746892  0.7527102164452755  0.24728967205957755  1.0000
  I   I3        1.0  0.7527101989604985  0.24728981390310373  0.2472897064317918  1.0000
  I   I4        1.0  0.24728977977512803  0.7527102229918737  0.7527102168128593  1.0000
  I   I5        1.0  0.24728983252638073  0.7527102271799626  0.2472896932611942  1.0000
  I   I6        1.0  0.7527102063712913  0.24728976992121274  0.7527102157378971  1.0000
