data_image0
_chemical_formula_structural       Ta2BeBr6
_chemical_formula_sum              "Ta2 Be1 Br6"
_cell_length_a       6.713385497892851
_cell_length_b       6.713385777801789
_cell_length_c       6.713385642959404
_cell_angle_alpha    60.00000102291522
_cell_angle_beta     60.00000034425757
_cell_angle_gamma    59.99999869692205

_space_group_name_H-M_alt    "P 1"
_space_group_IT_number       1

loop_
  _space_group_symop_operation_xyz
  'x, y, z'

loop_
  _atom_site_type_symbol
  _atom_site_label
  _atom_site_symmetry_multiplicity
  _atom_site_fract_x
  _atom_site_fract_y
  _atom_site_fract_z
  _atom_site_occupancy
  Ta  Ta1       1.0  0.2499999832082109  0.25000002694481177  0.24999997354838133  1.0000
  Ta  Ta2       1.0  0.7500000045632871  0.7499999056985027  0.7500000328784312  1.0000
  Be  Be1       1.0  0.9999999560610473  4.925698188436243e-08  2.7132212841047156e-08  1.0000
  Br  Br1       1.0  0.24247140419805585  0.24247138048025707  0.757528599390723  1.0000
  Br  Br2       1.0  0.7575286776516215  0.7575285795280441  0.2424713746161735  1.0000
  Br  Br3       1.0  0.7575286080483393  0.24247141841365366  0.24247136860328286  1.0000
  Br  Br4       1.0  0.24247136559646926  0.7575286236896182  0.7575286005838255  1.0000
  Br  Br5       1.0  0.2424713818623704  0.7575286254820222  0.2424714111845405  1.0000
  Br  Br6       1.0  0.7575286290321714  0.24247138743192684  0.7575286031278885  1.0000
