data_image0
_chemical_formula_structural       Ta2BeF6
_chemical_formula_sum              "Ta2 Be1 F6"
_cell_length_a       4.5317471928076305
_cell_length_b       4.5317383838783725
_cell_length_c       4.531742751629501
_cell_angle_alpha    59.999930394084416
_cell_angle_beta     59.99999669364716
_cell_angle_gamma    59.99995911117915

_space_group_name_H-M_alt    "P 1"
_space_group_IT_number       1

loop_
  _space_group_symop_operation_xyz
  'x, y, z'

loop_
  _atom_site_type_symbol
  _atom_site_label
  _atom_site_symmetry_multiplicity
  _atom_site_fract_x
  _atom_site_fract_y
  _atom_site_fract_z
  _atom_site_occupancy
  Ta  Ta1       1.0  0.25006105821413943  0.24992452230685258  0.24998694939558835  1.0000
  Ta  Ta2       1.0  0.7499388326265017  0.7500776305442901  0.7500130065808768  1.0000
  Be  Be1       1.0  0.9999999777391747  0.9999998756805811  0.9999999894372132  1.0000
  F   F1        1.0  0.2827661424850484  0.28275202766513163  0.7172431187329137  1.0000
  F   F2        1.0  0.7172341705541821  0.7172473144862322  0.2827566567477789  1.0000
  F   F3        1.0  0.717239023966004  0.28275514924287776  0.2827629864048401  1.0000
  F   F4        1.0  0.2827607185981787  0.7172442226368052  0.7172372977682742  1.0000
  F   F5        1.0  0.28276299855360115  0.7172454578500477  0.28275538367096387  1.0000
  F   F6        1.0  0.717237024863272  0.2827537059298442  0.7172446897998135  1.0000
