data_image0
_chemical_formula_structural       Ta2CF6
_chemical_formula_sum              "Ta2 C1 F6"
_cell_length_a       5.122471845745164
_cell_length_b       3.423780638788271
_cell_length_c       3.114048820245305
_cell_angle_alpha    33.69855032072352
_cell_angle_beta     41.14388689280383
_cell_angle_gamma    31.970320118695827

_space_group_name_H-M_alt    "P 1"
_space_group_IT_number       1

loop_
  _space_group_symop_operation_xyz
  'x, y, z'

loop_
  _atom_site_type_symbol
  _atom_site_label
  _atom_site_symmetry_multiplicity
  _atom_site_fract_x
  _atom_site_fract_y
  _atom_site_fract_z
  _atom_site_occupancy
  Ta  Ta1       1.0  0.8861637798379653  0.5629055554105256  0.9835304743084121  1.0000
  Ta  Ta2       1.0  0.0378292396281501  0.2873968644328104  0.49678677907731505  1.0000
  C   C1        1.0  0.5564076894259549  0.40074737869930266  0.8332976192677406  1.0000
  F   F1        1.0  0.4470685488468251  0.09232077872257212  0.3362643385441469  1.0000
  F   F2        1.0  0.50154950410024  0.24767216613209653  0.28426535784298257  1.0000
  F   F3        1.0  0.22238288732569833  0.5141550178045571  0.5178953946632288  1.0000
  F   F4        1.0  0.3184199559243426  0.6970238097644128  0.042213030630600556  1.0000
  F   F5        1.0  0.4798250159849913  0.8046987674248304  0.6394032942847387  1.0000
  F   F6        1.0  0.4513560344993106  0.9196787544666277  0.8004019496359009  1.0000
