data_image0
_chemical_formula_structural       Ta2CI6
_chemical_formula_sum              "Ta2 C1 I6"
_cell_length_a       7.436406997316648
_cell_length_b       7.436406919318577
_cell_length_c       7.436406765038729
_cell_angle_alpha    60.0000011636101
_cell_angle_beta     60.00000020211725
_cell_angle_gamma    60.0000003827653

_space_group_name_H-M_alt    "P 1"
_space_group_IT_number       1

loop_
  _space_group_symop_operation_xyz
  'x, y, z'

loop_
  _atom_site_type_symbol
  _atom_site_label
  _atom_site_symmetry_multiplicity
  _atom_site_fract_x
  _atom_site_fract_y
  _atom_site_fract_z
  _atom_site_occupancy
  Ta  Ta1       1.0  0.2499999956691677  0.2500001699056017  0.2499999565474014  1.0000
  Ta  Ta2       1.0  0.7499999364015378  0.7500000419807812  0.7499999741686175  1.0000
  C   C1        1.0  0.9999999981646601  1.4822620310170073e-08  0.9999999787142696  1.0000
  I   I1        1.0  0.25443700658763396  0.2544369780976969  0.7455629767152229  1.0000
  I   I2        1.0  0.7455630164425169  0.7455629422771505  0.25443702872686563  1.0000
  I   I3        1.0  0.745563022278121  0.25443691802435564  0.25443701659026163  1.0000
  I   I4        1.0  0.2544370219417776  0.7455630039974498  0.7455630191202737  1.0000
  I   I5        1.0  0.25443701769974275  0.7455629685053082  0.25443697832451695  1.0000
  I   I6        1.0  0.7455629942726584  0.2544369617512864  0.7455630599792243  1.0000
