data_image0
_chemical_formula_structural       Ta2CuCl6
_chemical_formula_sum              "Ta2 Cu1 Cl6"
_cell_length_a       6.5365705255975985
_cell_length_b       6.536570290727061
_cell_length_c       6.536570597959401
_cell_angle_alpha    59.99999924157349
_cell_angle_beta     59.999999638350204
_cell_angle_gamma    59.999998841852644

_space_group_name_H-M_alt    "P 1"
_space_group_IT_number       1

loop_
  _space_group_symop_operation_xyz
  'x, y, z'

loop_
  _atom_site_type_symbol
  _atom_site_label
  _atom_site_symmetry_multiplicity
  _atom_site_fract_x
  _atom_site_fract_y
  _atom_site_fract_z
  _atom_site_occupancy
  Ta  Ta1       1.0  0.25000145034316706  0.24999913554075237  0.2500005256695504  1.0000
  Ta  Ta2       1.0  0.7499997943490003  0.7500013413527499  0.7499978614074174  1.0000
  Cu  Cu1       1.0  2.3892453163824753e-08  1.3115768333730636e-08  0.9999999769063267  1.0000
  Cl  Cl1       1.0  0.253669569578284  0.2536694210725719  0.7463304514474941  1.0000
  Cl  Cl2       1.0  0.7463300608024189  0.7463307316740957  0.2536701210927122  1.0000
  Cl  Cl3       1.0  0.7463298586541469  0.25366894224339853  0.25367021059858197  1.0000
  Cl  Cl4       1.0  0.25366976406376074  0.74633062404105  0.7463303056078072  1.0000
  Cl  Cl5       1.0  0.25366915502028525  0.7463304584651684  0.2536698837455738  1.0000
  Cl  Cl6       1.0  0.7463303329028906  0.25366932141893783  0.7463306527226675  1.0000
