data_image0
_chemical_formula_structural       Ta2GaO6
_chemical_formula_sum              "Ta2 Ga1 O6"
_cell_length_a       4.8627605170441965
_cell_length_b       4.8627605293719505
_cell_length_c       4.862760510877199
_cell_angle_alpha    60.00000067683187
_cell_angle_beta     59.999999970159
_cell_angle_gamma    59.99999999461686

_space_group_name_H-M_alt    "P 1"
_space_group_IT_number       1

loop_
  _space_group_symop_operation_xyz
  'x, y, z'

loop_
  _atom_site_type_symbol
  _atom_site_label
  _atom_site_symmetry_multiplicity
  _atom_site_fract_x
  _atom_site_fract_y
  _atom_site_fract_z
  _atom_site_occupancy
  Ta  Ta1       1.0  0.24999995998325825  0.2499999762215471  0.24999991035435437  1.0000
  Ta  Ta2       1.0  0.7500000850030439  0.7499999261460222  0.749999981447849  1.0000
  Ga  Ga1       1.0  1.9284710776694766e-08  0.9999999848882765  0.9999999835183906  1.0000
  O   O1        1.0  0.2629345655812746  0.26293463989938803  0.7370653959751142  1.0000
  O   O2        1.0  0.7370654280737468  0.7370653808433488  0.2629346556109853  1.0000
  O   O3        1.0  0.7370655267713567  0.26293455823050027  0.2629346270311554  1.0000
  O   O4        1.0  0.262934511712567  0.7370654776239595  0.7370653328912786  1.0000
  O   O5        1.0  0.26293462123806344  0.7370654065309298  0.2629345509441258  1.0000
  O   O6        1.0  0.737065278392696  0.26293464695387486  0.7370655539039669  1.0000
