data_image0
_chemical_formula_structural       Ta2GaBr6
_chemical_formula_sum              "Ta2 Ga1 Br6"
_cell_length_a       6.994451964692922
_cell_length_b       6.994452068820289
_cell_length_c       6.9944519788187405
_cell_angle_alpha    60.00000019687998
_cell_angle_beta     59.999999448966456
_cell_angle_gamma    59.99999973436072

_space_group_name_H-M_alt    "P 1"
_space_group_IT_number       1

loop_
  _space_group_symop_operation_xyz
  'x, y, z'

loop_
  _atom_site_type_symbol
  _atom_site_label
  _atom_site_symmetry_multiplicity
  _atom_site_fract_x
  _atom_site_fract_y
  _atom_site_fract_z
  _atom_site_occupancy
  Ta  Ta1       1.0  0.24999994293971717  0.2499999711916288  0.25000007312514266  1.0000
  Ta  Ta2       1.0  0.7500000682798087  0.7499999380892116  0.7499999644333423  1.0000
  Ga  Ga1       1.0  0.9999999899773917  3.502046645993132e-08  0.9999999717743205  1.0000
  Br  Br1       1.0  0.25347896043083523  0.2534790527574046  0.7465209793415496  1.0000
  Br  Br2       1.0  0.7465210275074919  0.7465209808460915  0.2534790248526616  1.0000
  Br  Br3       1.0  0.7465209966204099  0.2534789800068716  0.25347903388651866  1.0000
  Br  Br4       1.0  0.2534790126964049  0.7465210290822981  0.7465209675864982  1.0000
  Br  Br5       1.0  0.2534790367385148  0.7465210136996171  0.25347898363589993  1.0000
  Br  Br6       1.0  0.7465209641236114  0.2534790058956924  0.746520995365823  1.0000
