data_image0
_chemical_formula_structural       Ta2GaSe6
_chemical_formula_sum              "Ta2 Ga1 Se6"
_cell_length_a       6.508341448330796
_cell_length_b       6.508341395456342
_cell_length_c       6.508341373021672
_cell_angle_alpha    60.00000038316902
_cell_angle_beta     59.99999994433533
_cell_angle_gamma    60.0000000585824

_space_group_name_H-M_alt    "P 1"
_space_group_IT_number       1

loop_
  _space_group_symop_operation_xyz
  'x, y, z'

loop_
  _atom_site_type_symbol
  _atom_site_label
  _atom_site_symmetry_multiplicity
  _atom_site_fract_x
  _atom_site_fract_y
  _atom_site_fract_z
  _atom_site_occupancy
  Ta  Ta1       1.0  0.24999998513667832  0.2499999781476529  0.25000002779301833  1.0000
  Ta  Ta2       1.0  0.7500001207843863  0.750000007833469  0.7499999040735222  1.0000
  Ga  Ga1       1.0  0.9999999936196842  2.4463503707633632e-08  2.7834160841014147e-08  1.0000
  Se  Se1       1.0  0.2626078428770222  0.2626079527277144  0.7373920706675672  1.0000
  Se  Se2       1.0  0.7373921517899991  0.7373920370170235  0.26260793952802386  1.0000
  Se  Se3       1.0  0.7373921293878021  0.26260784252256597  0.2626079510144861  1.0000
  Se  Se4       1.0  0.26260783427555084  0.7373921603948275  0.7373920358303262  1.0000
  Se  Se5       1.0  0.26260791584655835  0.7373920922963657  0.262607892415408  1.0000
  Se  Se6       1.0  0.7373920218312802  0.26260790873921996  0.7373921529212688  1.0000
