data_image0
_chemical_formula_structural       Ta2GaCl6
_chemical_formula_sum              "Ta2 Ga1 Cl6"
_cell_length_a       6.803676973175227
_cell_length_b       6.803677148052521
_cell_length_c       6.803676971346422
_cell_angle_alpha    59.99999867975737
_cell_angle_beta     60.00000047404051
_cell_angle_gamma    59.999997009491906

_space_group_name_H-M_alt    "P 1"
_space_group_IT_number       1

loop_
  _space_group_symop_operation_xyz
  'x, y, z'

loop_
  _atom_site_type_symbol
  _atom_site_label
  _atom_site_symmetry_multiplicity
  _atom_site_fract_x
  _atom_site_fract_y
  _atom_site_fract_z
  _atom_site_occupancy
  Ta  Ta1       1.0  0.2500013254657234  0.2499989850220316  0.2500012913696038  1.0000
  Ta  Ta2       1.0  0.7500002475187463  0.7500002294883544  0.7499965436587921  1.0000
  Ga  Ga1       1.0  0.999999924106716  3.420232035441478e-08  3.260382875610478e-08  1.0000
  Cl  Cl1       1.0  0.2494143115150711  0.24941437858540016  0.750585450158897  1.0000
  Cl  Cl2       1.0  0.7505851823103613  0.7505860888099037  0.24941541864829184  1.0000
  Cl  Cl3       1.0  0.7505851891969861  0.2494138056746029  0.24941508698314163  1.0000
  Cl  Cl4       1.0  0.24941474959065604  0.7505859632733626  0.7505852794950185  1.0000
  Cl  Cl5       1.0  0.2494136677819636  0.7505855103046983  0.24941512498950402  1.0000
  Cl  Cl6       1.0  0.7505853976356373  0.2494149948931856  0.75058577891282  1.0000
