data_image0
_chemical_formula_structural       Ta2IrF6
_chemical_formula_sum              "Ta2 Ir1 F6"
_cell_length_a       4.782877352070524
_cell_length_b       4.7828814208163335
_cell_length_c       4.78288446352168
_cell_angle_alpha    60.00001525436201
_cell_angle_beta     59.99999005037148
_cell_angle_gamma    59.99996777146273

_space_group_name_H-M_alt    "P 1"
_space_group_IT_number       1

loop_
  _space_group_symop_operation_xyz
  'x, y, z'

loop_
  _atom_site_type_symbol
  _atom_site_label
  _atom_site_symmetry_multiplicity
  _atom_site_fract_x
  _atom_site_fract_y
  _atom_site_fract_z
  _atom_site_occupancy
  Ta  Ta1       1.0  0.24998756436903996  0.2500006431698716  0.25000798927602647  1.0000
  Ta  Ta2       1.0  0.7500132030914481  0.7500012073634686  0.74998634102159  1.0000
  Ir  Ir1       1.0  0.9999959780950611  0.9999986377173908  0.9999983411612666  1.0000
  F   F1        1.0  0.2843441106680178  0.2843478147661156  0.715653510994883  1.0000
  F   F2        1.0  0.7156595964946643  0.7156562328336975  0.2843436033385236  1.0000
  F   F3        1.0  0.7156562252435956  0.28434270883880236  0.2843476474765048  1.0000
  F   F4        1.0  0.2843403170505127  0.7156580995005093  0.7156562474637699  1.0000
  F   F5        1.0  0.2843420704826869  0.7156535226946391  0.28435065900519485  1.0000
  F   F6        1.0  0.7156608772107683  0.284341142560844  0.7156557558973972  1.0000
