data_image0
_chemical_formula_structural       Ta2IrBr6
_chemical_formula_sum              "Ta2 Ir1 Br6"
_cell_length_a       6.985674773104508
_cell_length_b       6.98567456947172
_cell_length_c       6.985674804907648
_cell_angle_alpha    60.000001536992436
_cell_angle_beta     60.000000369809435
_cell_angle_gamma    59.99999993785048

_space_group_name_H-M_alt    "P 1"
_space_group_IT_number       1

loop_
  _space_group_symop_operation_xyz
  'x, y, z'

loop_
  _atom_site_type_symbol
  _atom_site_label
  _atom_site_symmetry_multiplicity
  _atom_site_fract_x
  _atom_site_fract_y
  _atom_site_fract_z
  _atom_site_occupancy
  Ta  Ta1       1.0  0.24999992544208974  0.2499999046875582  0.24999985294837232  1.0000
  Ta  Ta2       1.0  0.7499999661265698  0.7500000471751576  0.750000209254827  1.0000
  Ir  Ir1       1.0  1.6429280442867085e-08  5.2596702363625085e-09  0.999999986292523  1.0000
  Br  Br1       1.0  0.2475246352336519  0.2475245916278173  0.7524753932325082  1.0000
  Br  Br2       1.0  0.7524753934127921  0.7524753952993671  0.24752458146806477  1.0000
  Br  Br3       1.0  0.7524754190845053  0.2475246312768346  0.24752458212850906  1.0000
  Br  Br4       1.0  0.2475246226853092  0.7524753609100212  0.7524754277570721  1.0000
  Br  Br5       1.0  0.24752462441392553  0.7524754519164656  0.24752459016148926  1.0000
  Br  Br6       1.0  0.7524753835777072  0.24752460689288164  0.752475387555428  1.0000
