data_image0
_chemical_formula_structural       Ta2IrCl6
_chemical_formula_sum              "Ta2 Ir1 Cl6"
_cell_length_a       6.841637828081729
_cell_length_b       6.841637716934854
_cell_length_c       6.841637863020852
_cell_angle_alpha    59.99999706907592
_cell_angle_beta     59.999996605208224
_cell_angle_gamma    59.99999755164628

_space_group_name_H-M_alt    "P 1"
_space_group_IT_number       1

loop_
  _space_group_symop_operation_xyz
  'x, y, z'

loop_
  _atom_site_type_symbol
  _atom_site_label
  _atom_site_symmetry_multiplicity
  _atom_site_fract_x
  _atom_site_fract_y
  _atom_site_fract_z
  _atom_site_occupancy
  Ta  Ta1       1.0  0.24999883527878827  0.25000172109809105  0.2500008864500538  1.0000
  Ta  Ta2       1.0  0.7500006046674309  0.7499986794285701  0.7499977802219515  1.0000
  Ir  Ir1       1.0  7.508023531795166e-08  0.9999999570367794  1.1402730110111354e-07  1.0000
  Cl  Cl1       1.0  0.24362991183560054  0.24362989152327494  0.7563700469176088  1.0000
  Cl  Cl2       1.0  0.7563703357204782  0.7563698735057468  0.24363052883457012  1.0000
  Cl  Cl3       1.0  0.7563700776424929  0.24362979017314754  0.24363014965984317  1.0000
  Cl  Cl4       1.0  0.24363016512233326  0.7563700196092293  0.7563702541008998  1.0000
  Cl  Cl5       1.0  0.24362940861008117  0.7563694176440141  0.24363055154297197  1.0000
  Cl  Cl6       1.0  0.7563705739800681  0.24363067139928737  0.7563696965108176  1.0000
