data_image0
_chemical_formula_structural       Ta2MgF6
_chemical_formula_sum              "Ta2 Mg1 F6"
_cell_length_a       6.442755633935022
_cell_length_b       5.423008350279215
_cell_length_c       4.70796576776343
_cell_angle_alpha    55.87114381547664
_cell_angle_beta     71.55130853964073
_cell_angle_gamma    73.6564269138634

_space_group_name_H-M_alt    "P 1"
_space_group_IT_number       1

loop_
  _space_group_symop_operation_xyz
  'x, y, z'

loop_
  _atom_site_type_symbol
  _atom_site_label
  _atom_site_symmetry_multiplicity
  _atom_site_fract_x
  _atom_site_fract_y
  _atom_site_fract_z
  _atom_site_occupancy
  Ta  Ta1       1.0  0.4591813799916972  0.756679361712393  0.507475455528877  1.0000
  Ta  Ta2       1.0  0.5407664532026936  0.24335003622105877  0.49273612940652145  1.0000
  Mg  Mg1       1.0  0.00028023529293710615  0.9996127321036532  0.999988655403636  1.0000
  F   F1        1.0  0.20304138658671567  0.291347588462801  0.6036166462247927  1.0000
  F   F2        1.0  0.7968426584463736  0.7089870778695295  0.39651647786957145  1.0000
  F   F3        1.0  0.7912594076699523  0.3159758162711089  0.09838823688716707  1.0000
  F   F4        1.0  0.20838508960084182  0.6830757586210697  0.9017983707226436  1.0000
  F   F5        1.0  0.204555888473857  0.9398457051462222  0.278443968209317  1.0000
  F   F6        1.0  0.7956513298793345  0.061165970427233894  0.7210477172212344  1.0000
