data_image0
_chemical_formula_structural       Ta2MgI6
_chemical_formula_sum              "Ta2 Mg1 I6"
_cell_length_a       7.528138303138563
_cell_length_b       7.528138372603895
_cell_length_c       7.528138259134673
_cell_angle_alpha    60.00000076085506
_cell_angle_beta     60.000000183757166
_cell_angle_gamma    59.99999974198791

_space_group_name_H-M_alt    "P 1"
_space_group_IT_number       1

loop_
  _space_group_symop_operation_xyz
  'x, y, z'

loop_
  _atom_site_type_symbol
  _atom_site_label
  _atom_site_symmetry_multiplicity
  _atom_site_fract_x
  _atom_site_fract_y
  _atom_site_fract_z
  _atom_site_occupancy
  Ta  Ta1       1.0  0.24999997365112803  0.249999929155396  0.2500001182057489  1.0000
  Ta  Ta2       1.0  0.7500000343462471  0.7499999810660268  0.7500000643008795  1.0000
  Mg  Mg1       1.0  0.9999999992716168  1.1388225881637646e-08  0.9999999840432813  1.0000
  I   I1        1.0  0.25728100506898266  0.25728099607952054  0.7427189721366084  1.0000
  I   I2        1.0  0.7427190240592523  0.7427190394123865  0.2572809206483515  1.0000
  I   I3        1.0  0.7427189772010653  0.2572810087231216  0.25728095581903976  1.0000
  I   I4        1.0  0.2572809618635402  0.7427190576796855  0.7427190130345235  1.0000
  I   I5        1.0  0.25728099003860594  0.7427190009046312  0.2572809768888207  1.0000
  I   I6        1.0  0.7427190495022692  0.2572809711385888  0.742718984921352  1.0000
