data_image0
_chemical_formula_structural       Ta2MoI6
_chemical_formula_sum              "Ta2 Mo1 I6"
_cell_length_a       7.610458189726155
_cell_length_b       7.6104581390382595
_cell_length_c       7.610458170334807
_cell_angle_alpha    60.000001580949025
_cell_angle_beta     60.00000012622242
_cell_angle_gamma    60.000000026529996

_space_group_name_H-M_alt    "P 1"
_space_group_IT_number       1

loop_
  _space_group_symop_operation_xyz
  'x, y, z'

loop_
  _atom_site_type_symbol
  _atom_site_label
  _atom_site_symmetry_multiplicity
  _atom_site_fract_x
  _atom_site_fract_y
  _atom_site_fract_z
  _atom_site_occupancy
  Ta  Ta1       1.0  0.2500000216611425  0.25000001018737794  0.24999999985982171  1.0000
  Ta  Ta2       1.0  0.7499999819341353  0.7499999565347072  0.750000055780141  1.0000
  Mo  Mo1       1.0  0.9999999949275958  0.9999999742513294  0.999999991758873  1.0000
  I   I1        1.0  0.2556057261331672  0.2556057466911291  0.7443942485458931  1.0000
  I   I2        1.0  0.7443942829631182  0.7443942763561702  0.25560569077217254  1.0000
  I   I3        1.0  0.7443942113060869  0.2556057993868223  0.25560573590217944  1.0000
  I   I4        1.0  0.2556057191216776  0.7443942912507382  0.7443942707121397  1.0000
  I   I5        1.0  0.25560579386334353  0.7443942029590411  0.255605758222965  1.0000
  I   I6        1.0  0.7443942723075354  0.25560574445154016  0.7443942442493967  1.0000
