data_image0
_chemical_formula_structural       Ta2MgCl6
_chemical_formula_sum              "Ta2 Mg1 Cl6"
_cell_length_a       6.671161581247643
_cell_length_b       6.671161748599119
_cell_length_c       6.671161183846292
_cell_angle_alpha    59.9999983475424
_cell_angle_beta     59.99999830067327
_cell_angle_gamma    59.99999766896021

_space_group_name_H-M_alt    "P 1"
_space_group_IT_number       1

loop_
  _space_group_symop_operation_xyz
  'x, y, z'

loop_
  _atom_site_type_symbol
  _atom_site_label
  _atom_site_symmetry_multiplicity
  _atom_site_fract_x
  _atom_site_fract_y
  _atom_site_fract_z
  _atom_site_occupancy
  Ta  Ta1       1.0  0.24999937512941772  0.24999988840345794  0.2500011095880681  1.0000
  Ta  Ta2       1.0  0.7500008083571041  0.7500000232069945  0.7499971089495662  1.0000
  Mg  Mg1       1.0  0.9999999778134949  0.9999999834770812  1.2578296155053584e-07  1.0000
  Cl  Cl1       1.0  0.2526140855456097  0.2526141844579319  0.7473857095082912  1.0000
  Cl  Cl2       1.0  0.7473860618383097  0.747385653717249  0.2526151060843313  1.0000
  Cl  Cl3       1.0  0.7473858945787304  0.25261376759139936  0.25261461887904735  1.0000
  Cl  Cl4       1.0  0.25261420914915167  0.747386030194451  0.7473857665545961  1.0000
  Cl  Cl5       1.0  0.25261351068063076  0.7473859528428173  0.2526148157069996  1.0000
  Cl  Cl6       1.0  0.7473860738927416  0.2526145352337211  0.7473856415524344  1.0000
