data_image0
_chemical_formula_structural       Ta2MgBr6
_chemical_formula_sum              "Ta2 Mg1 Br6"
_cell_length_a       6.916429510220953
_cell_length_b       6.9164298686429175
_cell_length_c       6.916429327306844
_cell_angle_alpha    59.999999773546
_cell_angle_beta     60.00000167593914
_cell_angle_gamma    59.999999506702

_space_group_name_H-M_alt    "P 1"
_space_group_IT_number       1

loop_
  _space_group_symop_operation_xyz
  'x, y, z'

loop_
  _atom_site_type_symbol
  _atom_site_label
  _atom_site_symmetry_multiplicity
  _atom_site_fract_x
  _atom_site_fract_y
  _atom_site_fract_z
  _atom_site_occupancy
  Ta  Ta1       1.0  0.24999998928423683  0.24999996593275967  0.24999999203225606  1.0000
  Ta  Ta2       1.0  0.7499999582377977  0.7500000518557962  0.750000026771246  1.0000
  Mg  Mg1       1.0  2.613917627957469e-08  0.9999999716675841  0.9999999345883143  1.0000
  Br  Br1       1.0  0.25439469945999515  0.25439468531976567  0.7456053258140577  1.0000
  Br  Br2       1.0  0.7456052888216619  0.7456053253856847  0.254394693501179  1.0000
  Br  Br3       1.0  0.7456053281262183  0.25439468899924195  0.2543946648827237  1.0000
  Br  Br4       1.0  0.254394703950251  0.7456053305600884  0.7456053179873381  1.0000
  Br  Br5       1.0  0.25439467443172337  0.7456053371007157  0.2543946773864026  1.0000
  Br  Br6       1.0  0.7456053319280339  0.2543946594385254  0.745605347202053  1.0000
