data_image0
_chemical_formula_structural       Ta2NiBr6
_chemical_formula_sum              "Ta2 Ni1 Br6"
_cell_length_a       6.829921019070088
_cell_length_b       6.829920888071903
_cell_length_c       6.829921095799287
_cell_angle_alpha    59.99999882648585
_cell_angle_beta     59.999999517892945
_cell_angle_gamma    59.99999872742508

_space_group_name_H-M_alt    "P 1"
_space_group_IT_number       1

loop_
  _space_group_symop_operation_xyz
  'x, y, z'

loop_
  _atom_site_type_symbol
  _atom_site_label
  _atom_site_symmetry_multiplicity
  _atom_site_fract_x
  _atom_site_fract_y
  _atom_site_fract_z
  _atom_site_occupancy
  Ta  Ta1       1.0  0.24999998685068003  0.2500000305918176  0.250000018879992  1.0000
  Ta  Ta2       1.0  0.7500000105566729  0.7499999519054557  0.7499998951281064  1.0000
  Ni  Ni1       1.0  0.9999999853818857  0.9999999982067949  3.748857486771656e-08  1.0000
  Br  Br1       1.0  0.2488957995339856  0.24889575443452724  0.7511042231080569  1.0000
  Br  Br2       1.0  0.7511042237282961  0.7511042316491561  0.2488957962393243  1.0000
  Br  Br3       1.0  0.751104211011673  0.24889579082262211  0.24889579038441606  1.0000
  Br  Br4       1.0  0.24889576697808927  0.7511042347115732  0.7511042289456774  1.0000
  Br  Br5       1.0  0.2488958016151357  0.7511042085569654  0.24889581235403818  1.0000
  Br  Br6       1.0  0.7511042176505149  0.24889580980440948  0.7511041987093957  1.0000
