data_image0
_chemical_formula_structural       Ta2NiCl6
_chemical_formula_sum              "Ta2 Ni1 Cl6"
_cell_length_a       6.638184092892666
_cell_length_b       6.638184674380956
_cell_length_c       6.6381839881214635
_cell_angle_alpha    60.00000412492833
_cell_angle_beta     60.000002681335936
_cell_angle_gamma    60.0000048950362

_space_group_name_H-M_alt    "P 1"
_space_group_IT_number       1

loop_
  _space_group_symop_operation_xyz
  'x, y, z'

loop_
  _atom_site_type_symbol
  _atom_site_label
  _atom_site_symmetry_multiplicity
  _atom_site_fract_x
  _atom_site_fract_y
  _atom_site_fract_z
  _atom_site_occupancy
  Ta  Ta1       1.0  0.2499981546648517  0.25000391194746974  0.24999920197867972  1.0000
  Ta  Ta2       1.0  0.7500007029338023  0.7499975016706357  0.7500010642482043  1.0000
  Ni  Ni1       1.0  3.109964999073582e-08  1.1069997879065679e-08  0.9999999397478381  1.0000
  Cl  Cl1       1.0  0.24680471851147745  0.2468054648207959  0.753194930530334  1.0000
  Cl  Cl2       1.0  0.7531959779140603  0.7531938399627974  0.24680513777800475  1.0000
  Cl  Cl3       1.0  0.7531949488174509  0.24680571193564724  0.2468043452984853  1.0000
  Cl  Cl4       1.0  0.2468050963299232  0.7531941168278227  0.7531955832901156  1.0000
  Cl  Cl5       1.0  0.2468052123385971  0.7531939914517742  0.2468051224466093  1.0000
  Cl  Cl6       1.0  0.7531951571847458  0.24680545908678336  0.7531946718778042  1.0000
