data_image0
_chemical_formula_structural       Ta2NF6
_chemical_formula_sum              "Ta2 N1 F6"
_cell_length_a       4.0862687412433205
_cell_length_b       4.123522601535378
_cell_length_c       3.9298457220348335
_cell_angle_alpha    93.61194229069706
_cell_angle_beta     73.72411311190068
_cell_angle_gamma    56.05770702276204

_space_group_name_H-M_alt    "P 1"
_space_group_IT_number       1

loop_
  _space_group_symop_operation_xyz
  'x, y, z'

loop_
  _atom_site_type_symbol
  _atom_site_label
  _atom_site_symmetry_multiplicity
  _atom_site_fract_x
  _atom_site_fract_y
  _atom_site_fract_z
  _atom_site_occupancy
  Ta  Ta1       1.0  0.06530064024688283  0.4840767288801346  0.7514266817350682  1.0000
  Ta  Ta2       1.0  0.562584553410831  0.8035954589248114  0.49511854380631043  1.0000
  N   N1        1.0  0.7349055247802165  0.5448699638808367  0.7672039222755566  1.0000
  F   F1        1.0  0.060969281026532415  0.48180860646827517  0.753027796599893  1.0000
  F   F2        1.0  0.6008529228780946  0.45886555851656885  0.4947862066190839  1.0000
  F   F3        1.0  0.10528726223401924  0.5523168949778222  0.32648194214617066  1.0000
  F   F4        1.0  0.0600131470869356  0.4601177488909436  0.7360581048691822  1.0000
  F   F5        1.0  0.9347108113735421  0.7943437414815785  0.2477364318434687  1.0000
  F   F6        1.0  0.6290760641269879  0.798658988001642  0.03410184257118289  1.0000
