data_image0
_chemical_formula_structural       Ta2NiI6
_chemical_formula_sum              "Ta2 Ni1 I6"
_cell_length_a       7.375712513312167
_cell_length_b       7.375712463377902
_cell_length_c       7.375712531464129
_cell_angle_alpha    60.00000051215399
_cell_angle_beta     60.00000015786296
_cell_angle_gamma    60.00000097848376

_space_group_name_H-M_alt    "P 1"
_space_group_IT_number       1

loop_
  _space_group_symop_operation_xyz
  'x, y, z'

loop_
  _atom_site_type_symbol
  _atom_site_label
  _atom_site_symmetry_multiplicity
  _atom_site_fract_x
  _atom_site_fract_y
  _atom_site_fract_z
  _atom_site_occupancy
  Ta  Ta1       1.0  0.24999997614556083  0.2500000174596997  0.24999992984782354  1.0000
  Ta  Ta2       1.0  0.7499999737452976  0.7499998929700864  0.7500002180832009  1.0000
  Ni  Ni1       1.0  1.1875885432156727e-08  6.642042539966119e-09  1.587445783815139e-09  1.0000
  I   I1        1.0  0.2508502656541216  0.25085027114971603  0.7491497469610517  1.0000
  I   I2        1.0  0.7491497501143598  0.749149742231726  0.25085019453322466  1.0000
  I   I3        1.0  0.7491497321181768  0.2508503217854557  0.25085023569036874  1.0000
  I   I4        1.0  0.2508502606093828  0.7491497231456875  0.749149738156151  1.0000
  I   I5        1.0  0.2508503082056825  0.7491497505278979  0.25085021376018185  1.0000
  I   I6        1.0  0.7491497262543656  0.25085026783507597  0.7491497240323528  1.0000
