data_image0
_chemical_formula_structural       Ta2NCl6
_chemical_formula_sum              "Ta2 N1 Cl6"
_cell_length_a       6.4776745796996575
_cell_length_b       6.477675060127666
_cell_length_c       6.4776748747263335
_cell_angle_alpha    60.00000313500993
_cell_angle_beta     60.000000315103755
_cell_angle_gamma    60.000004042257025

_space_group_name_H-M_alt    "P 1"
_space_group_IT_number       1

loop_
  _space_group_symop_operation_xyz
  'x, y, z'

loop_
  _atom_site_type_symbol
  _atom_site_label
  _atom_site_symmetry_multiplicity
  _atom_site_fract_x
  _atom_site_fract_y
  _atom_site_fract_z
  _atom_site_occupancy
  Ta  Ta1       1.0  0.2500008458062401  0.2499993563770492  0.2500003623020221  1.0000
  Ta  Ta2       1.0  0.7500005257421254  0.7499982109347938  0.7499978104548605  1.0000
  N   N1        1.0  0.9999999079946439  0.99999971450178  0.9999999664497944  1.0000
  Cl  Cl1       1.0  0.257767272104121  0.25776857731173114  0.742232117880696  1.0000
  Cl  Cl2       1.0  0.7422320190887898  0.7422325785803521  0.25776860750589076  1.0000
  Cl  Cl3       1.0  0.7422317973786196  0.2577677154787083  0.25776830676309337  1.0000
  Cl  Cl4       1.0  0.2577683221173001  0.742232661438119  0.7422320713129805  1.0000
  Cl  Cl5       1.0  0.2577674045934618  0.7422322802842046  0.25776830082672547  1.0000
  Cl  Cl6       1.0  0.7422319190999543  0.2577688850614628  0.7422324329143295  1.0000
