data_image0
_chemical_formula_structural       Ta2NiF6
_chemical_formula_sum              "Ta2 Ni1 F6"
_cell_length_a       4.508792847833818
_cell_length_b       4.508792357735084
_cell_length_c       4.508793403337543
_cell_angle_alpha    59.999977140151884
_cell_angle_beta     59.99997261932365
_cell_angle_gamma    59.99997517604205

_space_group_name_H-M_alt    "P 1"
_space_group_IT_number       1

loop_
  _space_group_symop_operation_xyz
  'x, y, z'

loop_
  _atom_site_type_symbol
  _atom_site_label
  _atom_site_symmetry_multiplicity
  _atom_site_fract_x
  _atom_site_fract_y
  _atom_site_fract_z
  _atom_site_occupancy
  Ta  Ta1       1.0  0.2499947510462521  0.2499942031681088  0.2499976472644427  1.0000
  Ta  Ta2       1.0  0.7500053277230971  0.7500092460147446  0.7499999548081178  1.0000
  Ni  Ni1       1.0  1.1426005552637896e-06  0.999999576249614  0.9999985493737341  1.0000
  F   F1        1.0  0.2672810449387568  0.2672801467809949  0.73272116205525  1.0000
  F   F2        1.0  0.732719239941974  0.7327193419654146  0.26727975215397076  1.0000
  F   F3        1.0  0.7327208038614124  0.2672792111237811  0.2672821920500885  1.0000
  F   F4        1.0  0.2672788549380947  0.7327192209630623  0.7327195369150992  1.0000
  F   F5        1.0  0.26727967983505524  0.7327206237212033  0.2672816371731586  1.0000
  F   F6        1.0  0.7327191027300819  0.2672784548567346  0.7327196100518024  1.0000
