data_image0
_chemical_formula_structural       Ta2NO6
_chemical_formula_sum              "Ta2 N1 O6"
_cell_length_a       4.775995364659828
_cell_length_b       4.775995346935933
_cell_length_c       4.775995415605569
_cell_angle_alpha    59.9999998008309
_cell_angle_beta     59.999999538016525
_cell_angle_gamma    60.00000101680831

_space_group_name_H-M_alt    "P 1"
_space_group_IT_number       1

loop_
  _space_group_symop_operation_xyz
  'x, y, z'

loop_
  _atom_site_type_symbol
  _atom_site_label
  _atom_site_symmetry_multiplicity
  _atom_site_fract_x
  _atom_site_fract_y
  _atom_site_fract_z
  _atom_site_occupancy
  Ta  Ta1       1.0  0.24999982949747732  0.24999996933531274  0.2499996428166603  1.0000
  Ta  Ta2       1.0  0.7500002617722283  0.7499998438965514  0.7500004624763034  1.0000
  N   N1        1.0  0.9999999613912954  1.3488618646901445e-06  0.9999984759446156  1.0000
  O   O1        1.0  0.24081305381336263  0.24081301639771605  0.7591869870571492  1.0000
  O   O2        1.0  0.7591862000045957  0.7591864224352142  0.24081362575235044  1.0000
  O   O3        1.0  0.7591866846416419  0.24081342802354597  0.24081339123730056  1.0000
  O   O4        1.0  0.24081329350219854  0.759186739092229  0.7591866334589239  1.0000
  O   O5        1.0  0.24081369149249363  0.7591862141211941  0.24081376218673037  1.0000
  O   O6        1.0  0.7591870206028056  0.2408130349479228  0.7591870015426367  1.0000
