data_image0
_chemical_formula_structural       Ta2PF6
_chemical_formula_sum              "Ta2 P1 F6"
_cell_length_a       4.221387505237754
_cell_length_b       2.306407337691595
_cell_length_c       3.329936758690706
_cell_angle_alpha    97.76778592104536
_cell_angle_beta     59.702963155377894
_cell_angle_gamma    99.79306336014614

_space_group_name_H-M_alt    "P 1"
_space_group_IT_number       1

loop_
  _space_group_symop_operation_xyz
  'x, y, z'

loop_
  _atom_site_type_symbol
  _atom_site_label
  _atom_site_symmetry_multiplicity
  _atom_site_fract_x
  _atom_site_fract_y
  _atom_site_fract_z
  _atom_site_occupancy
  Ta  Ta1       1.0  0.4446261104953074  0.4034441491153163  0.5545495704910988  1.0000
  Ta  Ta2       1.0  0.9706867027808074  0.6968940797007435  0.00574553651858789  1.0000
  P   P1        1.0  0.20995182300852727  0.11372846161317814  0.8407903280805714  1.0000
  F   F1        1.0  0.3220888748509305  0.8739224171869009  0.7193984147580785  1.0000
  F   F2        1.0  0.9753479512432008  0.7090199418969835  0.011839606880315046  1.0000
  F   F3        1.0  0.8939796783304442  0.057511907345991056  0.18350745245384137  1.0000
  F   F4        1.0  0.2580709700372475  0.6997543508084021  0.501311488913653  1.0000
  F   F5        1.0  0.4048452000462336  0.006402799218994205  0.8111994065399373  1.0000
  F   F6        1.0  0.48912658976255796  0.2394304633264293  0.972378262310126  1.0000
