data_image0
_chemical_formula_structural       Ta2PBr6
_chemical_formula_sum              "Ta2 P1 Br6"
_cell_length_a       7.120863330129137
_cell_length_b       7.120863060601968
_cell_length_c       7.1208635537420575
_cell_angle_alpha    59.99999789436079
_cell_angle_beta     59.99999642754447
_cell_angle_gamma    59.99999661340985

_space_group_name_H-M_alt    "P 1"
_space_group_IT_number       1

loop_
  _space_group_symop_operation_xyz
  'x, y, z'

loop_
  _atom_site_type_symbol
  _atom_site_label
  _atom_site_symmetry_multiplicity
  _atom_site_fract_x
  _atom_site_fract_y
  _atom_site_fract_z
  _atom_site_occupancy
  Ta  Ta1       1.0  0.25000001663824695  0.24999967169659315  0.249999870970091  1.0000
  Ta  Ta2       1.0  0.750000191780932  0.7499997959420326  0.7500003943778402  1.0000
  P   P1        1.0  1.8272624707513234e-07  2.2531198669592127e-07  0.9999997075084643  1.0000
  Br  Br1       1.0  0.2578855698109124  0.2578857260806639  0.742114429806784  1.0000
  Br  Br2       1.0  0.7421141791854688  0.7421143074178487  0.25788559835616054  1.0000
  Br  Br3       1.0  0.7421143161270628  0.25788568618944474  0.257885683724172  1.0000
  Br  Br4       1.0  0.25788557243991067  0.7421143129102898  0.7421143634733898  1.0000
  Br  Br5       1.0  0.25788561511635943  0.7421146306059706  0.2578855466933838  1.0000
  Br  Br6       1.0  0.7421143673331224  0.2578856608833691  0.7421143747756747  1.0000
