data_image0
_chemical_formula_structural       Ta2PI6
_chemical_formula_sum              "Ta2 P1 I6"
_cell_length_a       7.6061955041394
_cell_length_b       7.606195706650974
_cell_length_c       7.6061954778229515
_cell_angle_alpha    59.99999996410253
_cell_angle_beta     59.99999945886401
_cell_angle_gamma    59.99999930801875

_space_group_name_H-M_alt    "P 1"
_space_group_IT_number       1

loop_
  _space_group_symop_operation_xyz
  'x, y, z'

loop_
  _atom_site_type_symbol
  _atom_site_label
  _atom_site_symmetry_multiplicity
  _atom_site_fract_x
  _atom_site_fract_y
  _atom_site_fract_z
  _atom_site_occupancy
  Ta  Ta1       1.0  0.24999998098937387  0.25000012184311365  0.24999992450463138  1.0000
  Ta  Ta2       1.0  0.7500000987122769  0.7499998937425727  0.7499999893827832  1.0000
  P   P1        1.0  0.9999999756024271  3.220387495143284e-08  1.1873461477164607e-08  1.0000
  I   I1        1.0  0.25816058452139296  0.25816066275052435  0.7418393838772293  1.0000
  I   I2        1.0  0.7418393911519023  0.7418393415638067  0.2581606271015729  1.0000
  I   I3        1.0  0.7418394049485287  0.2581606030055519  0.25816059333547137  1.0000
  I   I4        1.0  0.25816061468933077  0.7418393513927726  0.7418394193043344  1.0000
  I   I5        1.0  0.25816059344371883  0.7418393655092457  0.25816062961062275  1.0000
  I   I6        1.0  0.7418393622337421  0.2581606259235353  0.7418394227865086  1.0000
