data_image0
_chemical_formula_structural       Ta2RhF6
_chemical_formula_sum              "Ta2 Rh1 F6"
_cell_length_a       7.488647754651568
_cell_length_b       7.48594010065394
_cell_length_c       6.5682550919715
_cell_angle_alpha    52.56018003708569
_cell_angle_beta     60.10906035434141
_cell_angle_gamma    44.18488497249269

_space_group_name_H-M_alt    "P 1"
_space_group_IT_number       1

loop_
  _space_group_symop_operation_xyz
  'x, y, z'

loop_
  _atom_site_type_symbol
  _atom_site_label
  _atom_site_symmetry_multiplicity
  _atom_site_fract_x
  _atom_site_fract_y
  _atom_site_fract_z
  _atom_site_occupancy
  Ta  Ta1       1.0  0.14167664553649092  0.22041905462130096  0.6404406763377631  1.0000
  Ta  Ta2       1.0  0.7355184606389567  0.32123497059625183  0.9408769435422816  1.0000
  Rh  Rh1       1.0  0.007412132085615367  0.9160337146507732  0.07557657603111942  1.0000
  F   F1        1.0  0.3197736315536809  0.2195746976315056  0.7635262326462565  1.0000
  F   F2        1.0  0.03351676416179572  0.6009934511524728  0.36657548979679233  1.0000
  F   F3        1.0  0.7280506789298371  0.5393435252488974  0.01908109434813133  1.0000
  F   F4        1.0  0.14635306868993553  0.14586626396259206  0.4118761051997419  1.0000
  F   F5        1.0  0.33168540914412287  0.5658690501589033  0.10032812137202601  1.0000
  F   F6        1.0  0.555937202310021  0.47072441309824475  0.6816325460902124  1.0000
