data_image0
_chemical_formula_structural       Ta2RuBr6
_chemical_formula_sum              "Ta2 Ru1 Br6"
_cell_length_a       6.9667252823531935
_cell_length_b       6.966724975844642
_cell_length_c       6.96672507909333
_cell_angle_alpha    59.999997723633726
_cell_angle_beta     59.99999828492021
_cell_angle_gamma    59.9999980786979

_space_group_name_H-M_alt    "P 1"
_space_group_IT_number       1

loop_
  _space_group_symop_operation_xyz
  'x, y, z'

loop_
  _atom_site_type_symbol
  _atom_site_label
  _atom_site_symmetry_multiplicity
  _atom_site_fract_x
  _atom_site_fract_y
  _atom_site_fract_z
  _atom_site_occupancy
  Ta  Ta1       1.0  0.2500000332662177  0.25000002362376517  0.24999982394823897  1.0000
  Ta  Ta2       1.0  0.7499999006058612  0.7499999126519795  0.7500002448041678  1.0000
  Ru  Ru1       1.0  2.0475408427267953e-08  0.9999999982420075  1.791379027556764e-08  1.0000
  Br  Br1       1.0  0.2504387167440153  0.25043867105264117  0.7495613394048943  1.0000
  Br  Br2       1.0  0.7495613250289584  0.7495613144468892  0.25043862925424915  1.0000
  Br  Br3       1.0  0.7495613142620962  0.25043873113769993  0.2504386671176305  1.0000
  Br  Br4       1.0  0.250438695031146  0.7495612772157302  0.7495613250145601  1.0000
  Br  Br5       1.0  0.250438701234665  0.7495613437965903  0.25043868502846667  1.0000
  Br  Br6       1.0  0.749561293391391  0.25043873839251785  0.7495612646009254  1.0000
