data_image0
_chemical_formula_structural       Ta2RuF6
_chemical_formula_sum              "Ta2 Ru1 F6"
_cell_length_a       15.660493151357036
_cell_length_b       14.646710355725258
_cell_length_c       15.007942226692611
_cell_angle_alpha    12.690254955610555
_cell_angle_beta     32.77479148689011
_cell_angle_gamma    35.6220279878848

_space_group_name_H-M_alt    "P 1"
_space_group_IT_number       1

loop_
  _space_group_symop_operation_xyz
  'x, y, z'

loop_
  _atom_site_type_symbol
  _atom_site_label
  _atom_site_symmetry_multiplicity
  _atom_site_fract_x
  _atom_site_fract_y
  _atom_site_fract_z
  _atom_site_occupancy
  Ta  Ta1       1.0  0.936247772374418  0.46075395774384387  0.48930113105067646  1.0000
  Ta  Ta2       1.0  0.8478125978781332  0.6788572670155725  0.5883748628891642  1.0000
  Ru  Ru1       1.0  0.9850175288335538  0.03277910063849089  0.006348462802653241  1.0000
  F   F1        1.0  0.026722014082043593  0.680105190177656  0.5082328450736036  1.0000
  F   F2        1.0  0.9213341689877221  0.7862566884283634  0.08149555993748941  1.0000
  F   F3        1.0  0.6472044090741211  0.4815769785626559  0.9091597056388897  1.0000
  F   F4        1.0  0.7156291781573894  0.33858099191226715  0.8021285084088504  1.0000
  F   F5        1.0  0.7644126973398839  0.16651906985874576  0.25630758659695096  1.0000
  F   F6        1.0  0.15563427625411497  0.3745400502025541  0.358715215172208  1.0000
