data_image0
_chemical_formula_structural       Ta2RuCl6
_chemical_formula_sum              "Ta2 Ru1 Cl6"
_cell_length_a       6.766870710108182
_cell_length_b       6.766870241697018
_cell_length_c       6.766870717586043
_cell_angle_alpha    59.999996944204185
_cell_angle_beta     59.99999485416487
_cell_angle_gamma    59.999997496137595

_space_group_name_H-M_alt    "P 1"
_space_group_IT_number       1

loop_
  _space_group_symop_operation_xyz
  'x, y, z'

loop_
  _atom_site_type_symbol
  _atom_site_label
  _atom_site_symmetry_multiplicity
  _atom_site_fract_x
  _atom_site_fract_y
  _atom_site_fract_z
  _atom_site_occupancy
  Ta  Ta1       1.0  0.2499995005394579  0.24999919605014084  0.25000130585667807  1.0000
  Ta  Ta2       1.0  0.7499982692178058  0.7500007681682471  0.7500011861638528  1.0000
  Ru  Ru1       1.0  1.2506718913626567e-07  3.6198274861096597e-09  0.9999998662004532  1.0000
  Cl  Cl1       1.0  0.25032586723160904  0.2503249099682216  0.7496744484987949  1.0000
  Cl  Cl2       1.0  0.7496747149406332  0.7496747719036881  0.25032487952986376  1.0000
  Cl  Cl3       1.0  0.7496747796206426  0.25032534740281065  0.25032509071105113  1.0000
  Cl  Cl4       1.0  0.2503256932971483  0.7496749335504365  0.7496743426399096  1.0000
  Cl  Cl5       1.0  0.2503257146563587  0.7496748646917473  0.25032485004401744  1.0000
  Cl  Cl6       1.0  0.7496753305304419  0.2503252045016352  0.7496740720278491  1.0000
