data_image0
_chemical_formula_structural       Ta2RhI6
_chemical_formula_sum              "Ta2 Rh1 I6"
_cell_length_a       7.465690525127101
_cell_length_b       7.465690495403712
_cell_length_c       7.46569066125852
_cell_angle_alpha    59.99999955642386
_cell_angle_beta     59.999999933654784
_cell_angle_gamma    59.999999496064945

_space_group_name_H-M_alt    "P 1"
_space_group_IT_number       1

loop_
  _space_group_symop_operation_xyz
  'x, y, z'

loop_
  _atom_site_type_symbol
  _atom_site_label
  _atom_site_symmetry_multiplicity
  _atom_site_fract_x
  _atom_site_fract_y
  _atom_site_fract_z
  _atom_site_occupancy
  Ta  Ta1       1.0  0.25000000037733994  0.24999997028602686  0.25000001480925377  1.0000
  Ta  Ta2       1.0  0.7500000318912343  0.7500000552218863  0.7500000010684581  1.0000
  Rh  Rh1       1.0  0.999999997265837  8.202488979189782e-09  0.9999999986052979  1.0000
  I   I1        1.0  0.2506089558706016  0.2506089597936672  0.7493910355310232  1.0000
  I   I2        1.0  0.7493910319357484  0.7493910181398098  0.25060895537359607  1.0000
  I   I3        1.0  0.7493910373439894  0.25060895175352194  0.25060896597213556  1.0000
  I   I4        1.0  0.25060894399419104  0.7493910409444354  0.749391030160554  1.0000
  I   I5        1.0  0.2506089401326531  0.749391058354573  0.25060897374635227  1.0000
  I   I6        1.0  0.7493910561254563  0.25060893598388223  0.7493910261612711  1.0000
