data_image0
_chemical_formula_structural       Ta2RhBr6
_chemical_formula_sum              "Ta2 Rh1 Br6"
_cell_length_a       6.926618550659632
_cell_length_b       6.926618500888137
_cell_length_c       6.92661855513039
_cell_angle_alpha    59.99999985315058
_cell_angle_beta     59.99999940605173
_cell_angle_gamma    59.999999391208966

_space_group_name_H-M_alt    "P 1"
_space_group_IT_number       1

loop_
  _space_group_symop_operation_xyz
  'x, y, z'

loop_
  _atom_site_type_symbol
  _atom_site_label
  _atom_site_symmetry_multiplicity
  _atom_site_fract_x
  _atom_site_fract_y
  _atom_site_fract_z
  _atom_site_occupancy
  Ta  Ta1       1.0  0.25000006618950993  0.24999998020472455  0.24999996617858894  1.0000
  Ta  Ta2       1.0  0.7499998334329715  0.7500000307909167  0.7500000331277644  1.0000
  Rh  Rh1       1.0  3.721239412646698e-09  8.840857069656537e-09  1.3930834198468066e-08  1.0000
  Br  Br1       1.0  0.24894656386518002  0.24894657966777298  0.7510534136332921  1.0000
  Br  Br2       1.0  0.7510534404953038  0.751053417182497  0.2489465851316279  1.0000
  Br  Br3       1.0  0.7510534481907282  0.24894652395274633  0.24894661285819683  1.0000
  Br  Br4       1.0  0.24894659875606584  0.7510534251568955  0.7510534375698821  1.0000
  Br  Br5       1.0  0.24894665683625947  0.7510534446499146  0.24894649303718144  1.0000
  Br  Br6       1.0  0.7510533836936628  0.24894657872292617  0.7510534628320866  1.0000
