data_image0
_chemical_formula_structural       Ta2SBr6
_chemical_formula_sum              "Ta2 S1 Br6"
_cell_length_a       7.109786280883167
_cell_length_b       7.109786608448868
_cell_length_c       7.109786567736401
_cell_angle_alpha    60.00000308808694
_cell_angle_beta     60.00000248863772
_cell_angle_gamma    60.000002365839194

_space_group_name_H-M_alt    "P 1"
_space_group_IT_number       1

loop_
  _space_group_symop_operation_xyz
  'x, y, z'

loop_
  _atom_site_type_symbol
  _atom_site_label
  _atom_site_symmetry_multiplicity
  _atom_site_fract_x
  _atom_site_fract_y
  _atom_site_fract_z
  _atom_site_occupancy
  Ta  Ta1       1.0  0.24999988828305833  0.2500000087345533  0.2500000045738913  1.0000
  Ta  Ta2       1.0  0.7500000777956015  0.7500001175024278  0.7499998502093456  1.0000
  S   S1        1.0  0.9999999648440014  0.9999999982773814  0.9999999903090679  1.0000
  Br  Br1       1.0  0.25770735635893083  0.2577075529280744  0.7422926037750759  1.0000
  Br  Br2       1.0  0.7422925317967313  0.7422925147398892  0.2577074880356031  1.0000
  Br  Br3       1.0  0.7422925388651053  0.2577074655535377  0.2577075029746317  1.0000
  Br  Br4       1.0  0.2577076051947522  0.7422924970347109  0.7422925246759082  1.0000
  Br  Br5       1.0  0.2577074727954805  0.7422924192074383  0.2577075881460879  1.0000
  Br  Br6       1.0  0.7422925443735184  0.2577074124618204  0.742292447449339  1.0000
