data_image0
_chemical_formula_structural       Ta2SF6
_chemical_formula_sum              "Ta2 S1 F6"
_cell_length_a       7.379241576054345
_cell_length_b       6.349781033348137
_cell_length_c       5.466258310657117
_cell_angle_alpha    60.79397055651602
_cell_angle_beta     67.84582887809768
_cell_angle_gamma    41.39355992751443

_space_group_name_H-M_alt    "P 1"
_space_group_IT_number       1

loop_
  _space_group_symop_operation_xyz
  'x, y, z'

loop_
  _atom_site_type_symbol
  _atom_site_label
  _atom_site_symmetry_multiplicity
  _atom_site_fract_x
  _atom_site_fract_y
  _atom_site_fract_z
  _atom_site_occupancy
  Ta  Ta1       1.0  0.3875117817946087  0.5773577869331186  0.22689588524267526  1.0000
  Ta  Ta2       1.0  0.6552926136812963  0.8157382698586063  0.4544072542083001  1.0000
  S   S1        1.0  0.8263196757709265  0.053390308891418436  0.11573428334011616  1.0000
  F   F1        1.0  0.2865556346868186  0.303983231686693  0.33186316585425707  1.0000
  F   F2        1.0  0.878145733288222  0.37568333728732883  0.46876070640410505  1.0000
  F   F3        1.0  0.43500594086639655  0.8461665017083185  0.22550154832348654  1.0000
  F   F4        1.0  0.37252400962096166  0.837483245963491  0.8029175746647041  1.0000
  F   F5        1.0  0.36088107929221586  0.47668761785163166  0.6154839915949364  1.0000
  F   F6        1.0  0.7982408423904698  0.713304955434542  0.7579418938497073  1.0000
