data_image0
_chemical_formula_structural       Ta2SCl6
_chemical_formula_sum              "Ta2 S1 Cl6"
_cell_length_a       7.005383150708558
_cell_length_b       7.005385890064344
_cell_length_c       7.005384191044777
_cell_angle_alpha    60.00002851839556
_cell_angle_beta     60.00001301962137
_cell_angle_gamma    60.00002315493806

_space_group_name_H-M_alt    "P 1"
_space_group_IT_number       1

loop_
  _space_group_symop_operation_xyz
  'x, y, z'

loop_
  _atom_site_type_symbol
  _atom_site_label
  _atom_site_symmetry_multiplicity
  _atom_site_fract_x
  _atom_site_fract_y
  _atom_site_fract_z
  _atom_site_occupancy
  Ta  Ta1       1.0  0.25000093033554127  0.25000486512567993  0.24999998763644896  1.0000
  Ta  Ta2       1.0  0.7500017646102983  0.7499977663375339  0.7499944802799522  1.0000
  S   S1        1.0  0.9999998741318874  0.9999998583885644  3.435783334852885e-07  1.0000
  Cl  Cl1       1.0  0.25425179320718255  0.25425345585949927  0.745746922419175  1.0000
  Cl  Cl2       1.0  0.7457479208372414  0.7457463049126476  0.2542547893998312  1.0000
  Cl  Cl3       1.0  0.7457455795474239  0.2542521003900652  0.2542535664363833  1.0000
  Cl  Cl4       1.0  0.2542536534637837  0.7457463491646368  0.7457482449774953  1.0000
  Cl  Cl5       1.0  0.2542512212376056  0.7457452944761224  0.2542544192974657  1.0000
  Cl  Cl6       1.0  0.7457472603322214  0.25425400999225267  0.7457472661516773  1.0000
