data_image0
_chemical_formula_structural       Te2AsSe6
_chemical_formula_sum              "Te2 As1 Se6"
_cell_length_a       6.60925407045777
_cell_length_b       6.609253792988365
_cell_length_c       6.609254115263494
_cell_angle_alpha    59.99999552270237
_cell_angle_beta     59.99999669698896
_cell_angle_gamma    59.99999537540876

_space_group_name_H-M_alt    "P 1"
_space_group_IT_number       1

loop_
  _space_group_symop_operation_xyz
  'x, y, z'

loop_
  _atom_site_type_symbol
  _atom_site_label
  _atom_site_symmetry_multiplicity
  _atom_site_fract_x
  _atom_site_fract_y
  _atom_site_fract_z
  _atom_site_occupancy
  Te  Te1       1.0  0.24999978196284478  0.24999979448865584  0.25000019939091367  1.0000
  Te  Te2       1.0  0.7499998964899274  0.7500003470654659  0.7499998562025617  1.0000
  As  As1       1.0  7.694499086216729e-08  0.9999998739908331  1.0914818601006663e-08  1.0000
  Se  Se1       1.0  0.29322831169969293  0.29322818785159704  0.7067717392838158  1.0000
  Se  Se2       1.0  0.7067718649540768  0.7067721834839396  0.29322791600571624  1.0000
  Se  Se3       1.0  0.7067718531003669  0.2932280033561251  0.2932280923515167  1.0000
  Se  Se4       1.0  0.2932281770549832  0.7067717434928079  0.706772083090217  1.0000
  Se  Se5       1.0  0.2932281943700821  0.7067718243795663  0.29322799674492084  1.0000
  Se  Se6       1.0  0.7067718308769749  0.2932280577439129  0.7067721014094431  1.0000
