data_image0
_chemical_formula_structural       Te2AsS6
_chemical_formula_sum              "Te2 As1 S6"
_cell_length_a       6.5203297416737716
_cell_length_b       6.520329781915007
_cell_length_c       6.5203296778698245
_cell_angle_alpha    60.00000111512736
_cell_angle_beta     60.0000021560699
_cell_angle_gamma    60.000001964117736

_space_group_name_H-M_alt    "P 1"
_space_group_IT_number       1

loop_
  _space_group_symop_operation_xyz
  'x, y, z'

loop_
  _atom_site_type_symbol
  _atom_site_label
  _atom_site_symmetry_multiplicity
  _atom_site_fract_x
  _atom_site_fract_y
  _atom_site_fract_z
  _atom_site_occupancy
  Te  Te1       1.0  0.24999991405704994  0.2500004378797508  0.25000009409057095  1.0000
  Te  Te2       1.0  0.7499999618920439  0.7500001922654866  0.7500003834225761  1.0000
  As  As1       1.0  1.9050459802511e-08  2.2540176460469396e-08  0.9999999423967274  1.0000
  S   S1        1.0  0.25292815090806  0.2529280817180406  0.7470717858832664  1.0000
  S   S2        1.0  0.7470719511610405  0.7470717106839824  0.2529279806217329  1.0000
  S   S3        1.0  0.7470718508923487  0.25292806641645416  0.2529280169721131  1.0000
  S   S4        1.0  0.2529280528485934  0.7470718800101043  0.7470718897768839  1.0000
  S   S5        1.0  0.25292814339270814  0.7470716660101725  0.2529280187316551  1.0000
  S   S6        1.0  0.7470719587869784  0.2529279348003524  0.7470718971920669  1.0000
