data_image0
_chemical_formula_structural       Te2BiS6
_chemical_formula_sum              "Te2 Bi1 S6"
_cell_length_a       6.591673889813856
_cell_length_b       6.591674696821457
_cell_length_c       6.59167519874926
_cell_angle_alpha    60.000002056719
_cell_angle_beta     60.00000369896607
_cell_angle_gamma    60.00000507677679

_space_group_name_H-M_alt    "P 1"
_space_group_IT_number       1

loop_
  _space_group_symop_operation_xyz
  'x, y, z'

loop_
  _atom_site_type_symbol
  _atom_site_label
  _atom_site_symmetry_multiplicity
  _atom_site_fract_x
  _atom_site_fract_y
  _atom_site_fract_z
  _atom_site_occupancy
  Te  Te1       1.0  0.2500036081154388  0.2500001524786953  0.24999885327796734  1.0000
  Te  Te2       1.0  0.7500003228213676  0.7499980550190068  0.7500006633873356  1.0000
  Bi  Bi1       1.0  0.999999866210731  6.503061629362625e-08  0.9999999630772614  1.0000
  S   S1        1.0  0.28277996495234936  0.2827812697961792  0.7172188426038489  1.0000
  S   S2        1.0  0.7172185279855905  0.7172200294428682  0.28278076855665607  1.0000
  S   S3        1.0  0.717218021346979  0.2827809245788009  0.28278038431770264  1.0000
  S   S4        1.0  0.2827813987168224  0.7172190647577882  0.7172196033130626  1.0000
  S   S5        1.0  0.2827804168740161  0.7172193266338095  0.2827805433226334  1.0000
  S   S6        1.0  0.7172178866409487  0.28278112720719345  0.7172203589515082  1.0000
