data_image0
_chemical_formula_structural       Te2BiSe6
_chemical_formula_sum              "Te2 Bi1 Se6"
_cell_length_a       6.971710034058168
_cell_length_b       6.971709841376949
_cell_length_c       6.971709791288416
_cell_angle_alpha    60.0000003060419
_cell_angle_beta     59.999999923026515
_cell_angle_gamma    59.999997590231835

_space_group_name_H-M_alt    "P 1"
_space_group_IT_number       1

loop_
  _space_group_symop_operation_xyz
  'x, y, z'

loop_
  _atom_site_type_symbol
  _atom_site_label
  _atom_site_symmetry_multiplicity
  _atom_site_fract_x
  _atom_site_fract_y
  _atom_site_fract_z
  _atom_site_occupancy
  Te  Te1       1.0  0.2499998886797868  0.25000001591240584  0.2500000805609062  1.0000
  Te  Te2       1.0  0.7500000938583071  0.7500000213861775  0.7499999706647114  1.0000
  Bi  Bi1       1.0  1.1191983090619082e-08  2.1080823354503655e-08  0.9999999781261232  1.0000
  Se  Se1       1.0  0.31077323408412594  0.3107733123398946  0.6892267238775527  1.0000
  Se  Se2       1.0  0.6892266785893938  0.6892267407693076  0.3107732654442045  1.0000
  Se  Se3       1.0  0.6892267329871482  0.3107732390932605  0.3107732210655589  1.0000
  Se  Se4       1.0  0.3107733099975167  0.6892267261791724  0.6892265763291732  1.0000
  Se  Se5       1.0  0.31077330728710306  0.6892267135880014  0.3107733638965755  1.0000
  Se  Se6       1.0  0.6892267560923335  0.3107731954689034  0.6892268214755736  1.0000
