data_image0
_chemical_formula_structural       Te2NO6
_chemical_formula_sum              "Te2 N1 O6"
_cell_length_a       5.159624287070766
_cell_length_b       5.159624457868152
_cell_length_c       5.1596243520291685
_cell_angle_alpha    60.000003131568626
_cell_angle_beta     60.00000239892692
_cell_angle_gamma    60.00000405994043

_space_group_name_H-M_alt    "P 1"
_space_group_IT_number       1

loop_
  _space_group_symop_operation_xyz
  'x, y, z'

loop_
  _atom_site_type_symbol
  _atom_site_label
  _atom_site_symmetry_multiplicity
  _atom_site_fract_x
  _atom_site_fract_y
  _atom_site_fract_z
  _atom_site_occupancy
  Te  Te1       1.0  0.24999989165731373  0.25000047895109373  0.24999994558599195  1.0000
  Te  Te2       1.0  0.7500003853345578  0.750001192361259  0.7500005341229733  1.0000
  N   N1        1.0  0.9999995658067886  0.9999977710870049  8.727642280634252e-08  1.0000
  O   O1        1.0  0.23901546545075922  0.2390149776471894  0.7609845860092963  1.0000
  O   O2        1.0  0.7609862638032445  0.7609860765007516  0.23901328413078388  1.0000
  O   O3        1.0  0.7609848802720482  0.23901494908716414  0.23901518530648314  1.0000
  O   O4        1.0  0.2390133760217842  0.7609857347621048  0.7609862771271979  1.0000
  O   O5        1.0  0.23901462768361856  0.7609851110095932  0.23901458575224926  1.0000
  O   O6        1.0  0.7609855283940601  0.23901370710423245  0.7609855320412061  1.0000
