data_image0
_chemical_formula_structural       Te2SbSe6
_chemical_formula_sum              "Te2 Sb1 Se6"
_cell_length_a       6.8179134605334655
_cell_length_b       6.817913506837023
_cell_length_c       6.817913552227495
_cell_angle_alpha    60.00000067643496
_cell_angle_beta     60.000001087384135
_cell_angle_gamma    60.00000247553828

_space_group_name_H-M_alt    "P 1"
_space_group_IT_number       1

loop_
  _space_group_symop_operation_xyz
  'x, y, z'

loop_
  _atom_site_type_symbol
  _atom_site_label
  _atom_site_symmetry_multiplicity
  _atom_site_fract_x
  _atom_site_fract_y
  _atom_site_fract_z
  _atom_site_occupancy
  Te  Te1       1.0  0.2500001386451305  0.2499999882829284  0.2499999270279054  1.0000
  Te  Te2       1.0  0.7499999480011929  0.7499997834160983  0.7500001585692299  1.0000
  Sb  Sb1       1.0  3.837227016484676e-08  0.9999999712581908  8.172150790652842e-08  1.0000
  Se  Se1       1.0  0.3054427072212444  0.3054425574801522  0.6945573685293307  1.0000
  Se  Se2       1.0  0.6945575394947782  0.6945574351715444  0.30544251042265513  1.0000
  Se  Se3       1.0  0.6945573803663909  0.30544261685655816  0.30544269098597465  1.0000
  Se  Se4       1.0  0.30544246500979355  0.6945574620205617  0.6945575273970374  1.0000
  Se  Se5       1.0  0.30544239934999734  0.6945575393582638  0.3054424704977419  1.0000
  Se  Se6       1.0  0.6945573765345784  0.305442631133373  0.6945572689387397  1.0000
