data_image0
_chemical_formula_structural       Te2SbO6
_chemical_formula_sum              "Te2 Sb1 O6"
_cell_length_a       5.501310659598325
_cell_length_b       5.5013106550463
_cell_length_c       5.501310596444179
_cell_angle_alpha    60.00000118589425
_cell_angle_beta     60.00000205030429
_cell_angle_gamma    60.00000133409273

_space_group_name_H-M_alt    "P 1"
_space_group_IT_number       1

loop_
  _space_group_symop_operation_xyz
  'x, y, z'

loop_
  _atom_site_type_symbol
  _atom_site_label
  _atom_site_symmetry_multiplicity
  _atom_site_fract_x
  _atom_site_fract_y
  _atom_site_fract_z
  _atom_site_occupancy
  Te  Te1       1.0  0.24999945564137224  0.25000043487072576  0.2500000198077823  1.0000
  Te  Te2       1.0  0.7500000341793122  0.7499996905604133  0.7499999219389735  1.0000
  Sb  Sb1       1.0  5.925819611783952e-08  1.1131392027264753e-08  3.569740473433247e-08  1.0000
  O   O1        1.0  0.25154518778883544  0.25154529994042835  0.748454812439059  1.0000
  O   O2        1.0  0.7484548937081948  0.7484545806001012  0.25154535036629505  1.0000
  O   O3        1.0  0.7484549482715096  0.25154522356856096  0.25154515920275344  1.0000
  O   O4        1.0  0.25154536881780454  0.7484546302566297  0.7484548464494196  1.0000
  O   O5        1.0  0.25154517781041863  0.7484547311069562  0.2515452402592258  1.0000
  O   O6        1.0  0.7484548697176069  0.2515453898716295  0.7484546102705071  1.0000
