data_image0
_chemical_formula_structural       Te2YO6
_chemical_formula_sum              "Te2 Y1 O6"
_cell_length_a       5.579049773621708
_cell_length_b       5.579049985082999
_cell_length_c       5.57904972968986
_cell_angle_alpha    59.99999995342683
_cell_angle_beta     60.000000947996
_cell_angle_gamma    60.00000082042508

_space_group_name_H-M_alt    "P 1"
_space_group_IT_number       1

loop_
  _space_group_symop_operation_xyz
  'x, y, z'

loop_
  _atom_site_type_symbol
  _atom_site_label
  _atom_site_symmetry_multiplicity
  _atom_site_fract_x
  _atom_site_fract_y
  _atom_site_fract_z
  _atom_site_occupancy
  Te  Te1       1.0  0.2500000514490439  0.24999973249514867  0.25000028654380657  1.0000
  Te  Te2       1.0  0.7499999889064756  0.7499998055716514  0.7500001740718718  1.0000
  Y   Y1        1.0  0.9999999772547503  0.9999999626806296  7.305038894682599e-08  1.0000
  O   O1        1.0  0.27085616441905336  0.2708561480969948  0.7291437828599491  1.0000
  O   O2        1.0  0.7291436721326641  0.7291440200085787  0.27085609898456664  1.0000
  O   O3        1.0  0.7291438444654018  0.2708562233005967  0.27085607812192525  1.0000
  O   O4        1.0  0.2708561547359647  0.7291439535860063  0.7291436696119137  1.0000
  O   O5        1.0  0.27085622023377637  0.7291438531228823  0.27085610876496674  1.0000
  O   O6        1.0  0.7291439194781949  0.2708562996158904  0.7291437188038213  1.0000
