data_image0
_chemical_formula_structural       Te2YS6
_chemical_formula_sum              "Te2 Y1 S6"
_cell_length_a       6.694400718692094
_cell_length_b       6.6943999936468925
_cell_length_c       6.694401075671097
_cell_angle_alpha    60.00000646650495
_cell_angle_beta     60.000011529933694
_cell_angle_gamma    60.000007059537715

_space_group_name_H-M_alt    "P 1"
_space_group_IT_number       1

loop_
  _space_group_symop_operation_xyz
  'x, y, z'

loop_
  _atom_site_type_symbol
  _atom_site_label
  _atom_site_symmetry_multiplicity
  _atom_site_fract_x
  _atom_site_fract_y
  _atom_site_fract_z
  _atom_site_occupancy
  Te  Te1       1.0  0.24999957342480544  0.24999945270374982  0.24999983261649364  1.0000
  Te  Te2       1.0  0.7499994881510874  0.7499997595133457  0.7499998577009851  1.0000
  Y   Y1        1.0  7.240886111754405e-08  6.220323781851073e-08  1.1642959349298502e-07  1.0000
  S   S1        1.0  0.27861367655675234  0.27861399936661113  0.7213861856754241  1.0000
  S   S2        1.0  0.7213863999924545  0.7213863800757404  0.2786135637578965  1.0000
  S   S3        1.0  0.7213864018381672  0.2786138383953688  0.27861389072419596  1.0000
  S   S4        1.0  0.27861419304961277  0.7213862538145381  0.721386303325691  1.0000
  S   S5        1.0  0.2786138088279928  0.7213863850764679  0.27861389548990056  1.0000
  S   S6        1.0  0.7213863851891998  0.2786138644709701  0.7213863351807084  1.0000
