data_image0
_chemical_formula_structural       Te2YSe6
_chemical_formula_sum              "Te2 Y1 Se6"
_cell_length_a       6.9169237219932285
_cell_length_b       6.916922838663848
_cell_length_c       6.91692355133067
_cell_angle_alpha    60.00000005443902
_cell_angle_beta     59.99999900430355
_cell_angle_gamma    60.00000006604456

_space_group_name_H-M_alt    "P 1"
_space_group_IT_number       1

loop_
  _space_group_symop_operation_xyz
  'x, y, z'

loop_
  _atom_site_type_symbol
  _atom_site_label
  _atom_site_symmetry_multiplicity
  _atom_site_fract_x
  _atom_site_fract_y
  _atom_site_fract_z
  _atom_site_occupancy
  Te  Te1       1.0  0.25000014490293015  0.2499997224901867  0.2500000078828004  1.0000
  Te  Te2       1.0  0.7500005107479161  0.7499997907393344  0.7499997867613627  1.0000
  Y   Y1        1.0  3.5294367026918124e-08  0.9999999291739885  0.9999996664535664  1.0000
  Se  Se1       1.0  0.2966219765060909  0.29662231866907035  0.703378013505284  1.0000
  Se  Se2       1.0  0.7033780130687501  0.7033776903424124  0.29662198194427836  1.0000
  Se  Se3       1.0  0.7033772312147641  0.2966227555569459  0.29662231654437  1.0000
  Se  Se4       1.0  0.29662121764766786  0.7033785601941454  0.703378183347137  1.0000
  Se  Se5       1.0  0.2966223488667144  0.7033776277870104  0.29662220191917754  1.0000
  Se  Se6       1.0  0.7033784990209832  0.2966216092211412  0.7033778718168626  1.0000
