data_image0
_chemical_formula_structural       Ti2AsSe6
_chemical_formula_sum              "Ti2 As1 Se6"
_cell_length_a       6.294461141220079
_cell_length_b       6.294460848977825
_cell_length_c       6.294461102693091
_cell_angle_alpha    60.00000016011396
_cell_angle_beta     60.00000056654869
_cell_angle_gamma    60.00000004867052

_space_group_name_H-M_alt    "P 1"
_space_group_IT_number       1

loop_
  _space_group_symop_operation_xyz
  'x, y, z'

loop_
  _atom_site_type_symbol
  _atom_site_label
  _atom_site_symmetry_multiplicity
  _atom_site_fract_x
  _atom_site_fract_y
  _atom_site_fract_z
  _atom_site_occupancy
  Ti  Ti1       1.0  0.24999996637272445  0.2500005198566176  0.24999954252935622  1.0000
  Ti  Ti2       1.0  0.7500000983260372  0.7499998667671594  0.750000569086628  1.0000
  As  As1       1.0  1.2730016374624328e-08  5.837250631277763e-09  0.9999999780067798  1.0000
  Se  Se1       1.0  0.2866007297446579  0.2866006309356299  0.7133991739177992  1.0000
  Se  Se2       1.0  0.7133993438215478  0.7133991622343122  0.2866005833911432  1.0000
  Se  Se3       1.0  0.7133993449676458  0.28660078249149595  0.2866006034186964  1.0000
  Se  Se4       1.0  0.2866006935019622  0.713399055430706  0.7133994350281192  1.0000
  Se  Se5       1.0  0.28660067857981664  0.7133992881192481  0.28660070173995383  1.0000
  Se  Se6       1.0  0.7133991433458632  0.2866006821139694  0.7133994010650959  1.0000
