data_image0
_chemical_formula_structural       Ti2AsF6
_chemical_formula_sum              "Ti2 As1 F6"
_cell_length_a       5.5687159009064935
_cell_length_b       5.56871779879559
_cell_length_c       5.5687164691428
_cell_angle_alpha    59.999997552133614
_cell_angle_beta     59.99998963662624
_cell_angle_gamma    59.999997717194724

_space_group_name_H-M_alt    "P 1"
_space_group_IT_number       1

loop_
  _space_group_symop_operation_xyz
  'x, y, z'

loop_
  _atom_site_type_symbol
  _atom_site_label
  _atom_site_symmetry_multiplicity
  _atom_site_fract_x
  _atom_site_fract_y
  _atom_site_fract_z
  _atom_site_occupancy
  Ti  Ti1       1.0  0.24999820596994965  0.25000016016905197  0.25000005967314437  1.0000
  Ti  Ti2       1.0  0.7499996896107436  0.7499987144446157  0.7500006649335428  1.0000
  As  As1       1.0  5.047671616729116e-08  3.5189279531505926e-08  0.9999999463925211  1.0000
  F   F1        1.0  0.25483268417984767  0.25483472803851703  0.7451666072395436  1.0000
  F   F2        1.0  0.7451673369356502  0.7451653716017733  0.2548337224530783  1.0000
  F   F3        1.0  0.7451669191731196  0.254834142078568  0.25483319868741433  1.0000
  F   F4        1.0  0.25483439202053004  0.7451662302785694  0.7451664699225965  1.0000
  F   F5        1.0  0.2548339028463884  0.7451668620629329  0.2548334349748857  1.0000
  F   F6        1.0  0.7451668420130868  0.254833741223941  0.7451659021199843  1.0000
