data_image0
_chemical_formula_structural       Ti2AsI6
_chemical_formula_sum              "Ti2 As1 I6"
_cell_length_a       7.677244825548537
_cell_length_b       7.6772447934348795
_cell_length_c       7.67724473015543
_cell_angle_alpha    59.99999983775228
_cell_angle_beta     59.99999951314938
_cell_angle_gamma    59.99999979096056

_space_group_name_H-M_alt    "P 1"
_space_group_IT_number       1

loop_
  _space_group_symop_operation_xyz
  'x, y, z'

loop_
  _atom_site_type_symbol
  _atom_site_label
  _atom_site_symmetry_multiplicity
  _atom_site_fract_x
  _atom_site_fract_y
  _atom_site_fract_z
  _atom_site_occupancy
  Ti  Ti1       1.0  0.24999991689791115  0.25000006333176644  0.2500000106132812  1.0000
  Ti  Ti2       1.0  0.7499999661570126  0.7499999857978977  0.7500000796114802  1.0000
  As  As1       1.0  0.999999986979607  2.552467516415842e-08  1.1983567785092089e-08  1.0000
  I   I1        1.0  0.25906946599082614  0.2590694295347631  0.7409305443972708  1.0000
  I   I2        1.0  0.7409305623814819  0.7409305446161679  0.25906941947961976  1.0000
  I   I3        1.0  0.7409305659643681  0.25906945714754787  0.2590694423554648  1.0000
  I   I4        1.0  0.25906945232007644  0.7409305201939674  0.7409305562312807  1.0000
  I   I5        1.0  0.25906947668416425  0.7409305368876733  0.2590694462063993  1.0000
  I   I6        1.0  0.7409306068976848  0.2590694340726734  0.7409304851482594  1.0000
