data_image0
_chemical_formula_structural       Ti2AsCl6
_chemical_formula_sum              "Ti2 As1 Cl6"
_cell_length_a       6.549447836503868
_cell_length_b       6.5494474902992375
_cell_length_c       6.549447543472649
_cell_angle_alpha    59.9999992439157
_cell_angle_beta     60.0000011297484
_cell_angle_gamma    60.0000015741839

_space_group_name_H-M_alt    "P 1"
_space_group_IT_number       1

loop_
  _space_group_symop_operation_xyz
  'x, y, z'

loop_
  _atom_site_type_symbol
  _atom_site_label
  _atom_site_symmetry_multiplicity
  _atom_site_fract_x
  _atom_site_fract_y
  _atom_site_fract_z
  _atom_site_occupancy
  Ti  Ti1       1.0  0.2499998780294817  0.2500001228426998  0.24999998702795337  1.0000
  Ti  Ti2       1.0  0.7499999924919616  0.7500000337986018  0.7500000820824825  1.0000
  As  As1       1.0  7.832283586227214e-08  0.9999999607300599  2.322524952259322e-08  1.0000
  Cl  Cl1       1.0  0.2548694145439218  0.2548694347757862  0.7451305625082485  1.0000
  Cl  Cl2       1.0  0.7451306667461621  0.745130486245869  0.25486938619205907  1.0000
  Cl  Cl3       1.0  0.745130550853147  0.25486945046863474  0.25486943803823775  1.0000
  Cl  Cl4       1.0  0.25486942451028155  0.7451305397429153  0.7451305717821477  1.0000
  Cl  Cl5       1.0  0.25486945386964927  0.7451305361934849  0.2548693881926214  1.0000
  Cl  Cl6       1.0  0.7451305496139841  0.2548694278381047  0.7451305595837883  1.0000
