data_image0
_chemical_formula_structural       Ti2AsBr6
_chemical_formula_sum              "Ti2 As1 Br6"
_cell_length_a       6.820998001590263
_cell_length_b       6.820998054061549
_cell_length_c       6.820997925979097
_cell_angle_alpha    59.99999956944318
_cell_angle_beta     59.99999956632621
_cell_angle_gamma    60.00000073391397

_space_group_name_H-M_alt    "P 1"
_space_group_IT_number       1

loop_
  _space_group_symop_operation_xyz
  'x, y, z'

loop_
  _atom_site_type_symbol
  _atom_site_label
  _atom_site_symmetry_multiplicity
  _atom_site_fract_x
  _atom_site_fract_y
  _atom_site_fract_z
  _atom_site_occupancy
  Ti  Ti1       1.0  0.2499998772286399  0.24999999854807292  0.2500000669704496  1.0000
  Ti  Ti2       1.0  0.7500000033790228  0.750000063875154  0.749999973619021  1.0000
  As  As1       1.0  4.890824722776056e-09  0.9999999802489411  0.9999999839731389  1.0000
  Br  Br1       1.0  0.2577449105628779  0.2577448477122503  0.7422551310387938  1.0000
  Br  Br2       1.0  0.7422551091176669  0.7422551123645809  0.257744885323189  1.0000
  Br  Br3       1.0  0.7422551219356045  0.25774486375724476  0.2577449106839376  1.0000
  Br  Br4       1.0  0.2577448929568049  0.7422551106839929  0.7422551228808266  1.0000
  Br  Br5       1.0  0.25774492759167106  0.7422551149952376  0.2577448373346997  1.0000
  Br  Br6       1.0  0.7422551512011031  0.2577449115169752  0.7422550840001317  1.0000
