data_image0
_chemical_formula_structural       Ti2AsS6
_chemical_formula_sum              "Ti2 As1 S6"
_cell_length_a       6.201770111861125
_cell_length_b       6.201770111807578
_cell_length_c       6.2017705863621755
_cell_angle_alpha    59.999997408832506
_cell_angle_beta     60.000000141791276
_cell_angle_gamma    59.99999931355252

_space_group_name_H-M_alt    "P 1"
_space_group_IT_number       1

loop_
  _space_group_symop_operation_xyz
  'x, y, z'

loop_
  _atom_site_type_symbol
  _atom_site_label
  _atom_site_symmetry_multiplicity
  _atom_site_fract_x
  _atom_site_fract_y
  _atom_site_fract_z
  _atom_site_occupancy
  Ti  Ti1       1.0  0.2500000129722012  0.2500003777313839  0.24999961396627904  1.0000
  Ti  Ti2       1.0  0.7500001300561832  0.74999996606891  0.75000022481167  1.0000
  As  As1       1.0  0.9999999735205476  0.9999999565537128  1.2042233493149705e-07  1.0000
  S   S1        1.0  0.26216254235436814  0.26216252829150005  0.7378373011338973  1.0000
  S   S2        1.0  0.7378377155015615  0.7378371638145039  0.2621626158091824  1.0000
  S   S3        1.0  0.7378373560687372  0.2621629586018861  0.2621625228011442  1.0000
  S   S4        1.0  0.2621625438622025  0.7378373101548237  0.737837221893803  1.0000
  S   S5        1.0  0.26216279905129863  0.7378373942753818  0.2621624736779539  1.0000
  S   S6        1.0  0.7378368570176417  0.2621624163204882  0.7378378155215377  1.0000
