data_image0
_chemical_formula_structural       Ti2BF6
_chemical_formula_sum              "Ti2 B1 F6"
_cell_length_a       5.254397153621653
_cell_length_b       5.254399707447341
_cell_length_c       5.254397605395719
_cell_angle_alpha    60.00001268861334
_cell_angle_beta     60.000003922990906
_cell_angle_gamma    60.000010186168055

_space_group_name_H-M_alt    "P 1"
_space_group_IT_number       1

loop_
  _space_group_symop_operation_xyz
  'x, y, z'

loop_
  _atom_site_type_symbol
  _atom_site_label
  _atom_site_symmetry_multiplicity
  _atom_site_fract_x
  _atom_site_fract_y
  _atom_site_fract_z
  _atom_site_occupancy
  Ti  Ti1       1.0  0.2500018295845375  0.250001792326821  0.24999797761616435  1.0000
  Ti  Ti2       1.0  0.7499992813359083  0.7500004564644507  0.7500003513373679  1.0000
  B   B1        1.0  1.9317081323595078e-07  0.999999703976515  0.9999997659511864  1.0000
  F   F1        1.0  0.21939603662870938  0.21939589153734645  0.7806039424357506  1.0000
  F   F2        1.0  0.7806034855881042  0.7806038515434317  0.2193962129573161  1.0000
  F   F3        1.0  0.7806034387454909  0.21939563183407845  0.21939666935553506  1.0000
  F   F4        1.0  0.21939588643126456  0.7806034958907869  0.7806045526347142  1.0000
  F   F5        1.0  0.21939627128158593  0.7806037164974651  0.21939597610299388  1.0000
  F   F6        1.0  0.7806035252835658  0.21939573755248878  0.780604390270279  1.0000
