data_image0
_chemical_formula_structural       Ti2BBr6
_chemical_formula_sum              "Ti2 B1 Br6"
_cell_length_a       6.706637334459384
_cell_length_b       6.706637243112566
_cell_length_c       6.706637416535979
_cell_angle_alpha    60.00000001114514
_cell_angle_beta     60.000000351918686
_cell_angle_gamma    59.99999964942482

_space_group_name_H-M_alt    "P 1"
_space_group_IT_number       1

loop_
  _space_group_symop_operation_xyz
  'x, y, z'

loop_
  _atom_site_type_symbol
  _atom_site_label
  _atom_site_symmetry_multiplicity
  _atom_site_fract_x
  _atom_site_fract_y
  _atom_site_fract_z
  _atom_site_occupancy
  Ti  Ti1       1.0  0.25000000744341305  0.24999996078106762  0.24999994913318446  1.0000
  Ti  Ti2       1.0  0.7499999663098241  0.7500000813955556  0.7499999756856496  1.0000
  B   B1        1.0  0.9999997630937023  2.0453085686409558e-07  0.9999999923307575  1.0000
  Br  Br1       1.0  0.23631790600503605  0.23631783064345008  0.7636821604394342  1.0000
  Br  Br2       1.0  0.7636821431581503  0.7636821092677456  0.23631788516347194  1.0000
  Br  Br3       1.0  0.7636821888690644  0.2363178112387079  0.23631785835538602  1.0000
  Br  Br4       1.0  0.23631787812012447  0.763682126846319  0.7636821210962562  1.0000
  Br  Br5       1.0  0.23631792641969837  0.7636820318654975  0.23631791847179084  1.0000
  Br  Br6       1.0  0.7636822060309941  0.23631784412980544  0.763682135338031  1.0000
