data_image0
_chemical_formula_structural       Ti2BCl6
_chemical_formula_sum              "Ti2 B1 Cl6"
_cell_length_a       6.345861990971056
_cell_length_b       6.345861932340809
_cell_length_c       6.345861942683175
_cell_angle_alpha    60.00000050045496
_cell_angle_beta     60.00000036161847
_cell_angle_gamma    60.00000090380148

_space_group_name_H-M_alt    "P 1"
_space_group_IT_number       1

loop_
  _space_group_symop_operation_xyz
  'x, y, z'

loop_
  _atom_site_type_symbol
  _atom_site_label
  _atom_site_symmetry_multiplicity
  _atom_site_fract_x
  _atom_site_fract_y
  _atom_site_fract_z
  _atom_site_occupancy
  Ti  Ti1       1.0  0.2499999488329108  0.2500000510574035  0.25000004994921937  1.0000
  Ti  Ti2       1.0  0.7500000435340687  0.749999998773029  0.7499999157925221  1.0000
  B   B1        1.0  3.30841460289921e-08  0.9999999826300925  1.8931991703930447e-08  1.0000
  Cl  Cl1       1.0  0.22490129304904005  0.22490132228902113  0.7750986851580512  1.0000
  Cl  Cl2       1.0  0.7750986944109939  0.7750986985915648  0.22490129436042644  1.0000
  Cl  Cl3       1.0  0.7750986163546548  0.2249013118181644  0.22490135611467013  1.0000
  Cl  Cl4       1.0  0.2249013756086882  0.7750986955524933  0.7750986625753783  1.0000
  Cl  Cl5       1.0  0.2249013147608541  0.7750986633734532  0.2249013282545698  1.0000
  Cl  Cl6       1.0  0.7750986751085565  0.22490126293763377  0.7750986973439685  1.0000
