data_image0
_chemical_formula_structural       Ti2BI6
_chemical_formula_sum              "Ti2 B1 I6"
_cell_length_a       7.250203528369717
_cell_length_b       7.250203347195223
_cell_length_c       7.250203437434912
_cell_angle_alpha    60.00000109453424
_cell_angle_beta     60.00000028944256
_cell_angle_gamma    59.999999653785146

_space_group_name_H-M_alt    "P 1"
_space_group_IT_number       1

loop_
  _space_group_symop_operation_xyz
  'x, y, z'

loop_
  _atom_site_type_symbol
  _atom_site_label
  _atom_site_symmetry_multiplicity
  _atom_site_fract_x
  _atom_site_fract_y
  _atom_site_fract_z
  _atom_site_occupancy
  Ti  Ti1       1.0  0.24999997447151118  0.2500000155123627  0.2500000036560038  1.0000
  Ti  Ti2       1.0  0.7500000317475919  0.749999989102389  0.7500000517238697  1.0000
  B   B1        1.0  0.9999998997102036  8.108428347667499e-08  4.822236345054939e-08  1.0000
  I   I1        1.0  0.2394832625825079  0.23948337605640602  0.7605166449138447  1.0000
  I   I2        1.0  0.76051675245274  0.7605166116657852  0.23948333174793773  1.0000
  I   I3        1.0  0.7605166618489397  0.23948332106424097  0.23948329074414185  1.0000
  I   I4        1.0  0.2394833563716002  0.7605166666579489  0.7605166153614134  1.0000
  I   I5        1.0  0.23948336305371698  0.7605166963670044  0.23948331270719225  1.0000
  I   I6        1.0  0.760516697541712  0.23948324067751092  0.7605166913402267  1.0000
