data_image0
_chemical_formula_structural       Ti2GaS6
_chemical_formula_sum              "Ti2 Ga1 S6"
_cell_length_a       6.144926239515703
_cell_length_b       6.144926278218836
_cell_length_c       6.144926211468421
_cell_angle_alpha    60.00000001363577
_cell_angle_beta     60.00000053440309
_cell_angle_gamma    59.999999959175575

_space_group_name_H-M_alt    "P 1"
_space_group_IT_number       1

loop_
  _space_group_symop_operation_xyz
  'x, y, z'

loop_
  _atom_site_type_symbol
  _atom_site_label
  _atom_site_symmetry_multiplicity
  _atom_site_fract_x
  _atom_site_fract_y
  _atom_site_fract_z
  _atom_site_occupancy
  Ti  Ti1       1.0  0.24999993774116971  0.2500000617579555  0.2499998447894491  1.0000
  Ti  Ti2       1.0  0.7500000291359031  0.7499999321502406  0.7500004561581217  1.0000
  Ga  Ga1       1.0  2.2796876721104184e-08  0.9999999541587147  0.9999999415457743  1.0000
  S   S1        1.0  0.2635037375714429  0.2635037756781231  0.7364962578575949  1.0000
  S   S2        1.0  0.7364962168715246  0.7364963119057464  0.26350351751625695  1.0000
  S   S3        1.0  0.7364963190816718  0.26350380754556024  0.2635037034407323  1.0000
  S   S4        1.0  0.2635036696999357  0.7364961544730471  0.7364963681596924  1.0000
  S   S5        1.0  0.26350381873920947  0.7364962486945327  0.2635036653367965  1.0000
  S   S6        1.0  0.7364962602202219  0.2635037472067644  0.736496238455047  1.0000
