data_image0
_chemical_formula_structural       Ti2GaTe6
_chemical_formula_sum              "Ti2 Ga1 Te6"
_cell_length_a       7.096999842408396
_cell_length_b       7.096999773219745
_cell_length_c       7.096999842041726
_cell_angle_alpha    59.99999979341295
_cell_angle_beta     59.99999931687373
_cell_angle_gamma    59.999999496721436

_space_group_name_H-M_alt    "P 1"
_space_group_IT_number       1

loop_
  _space_group_symop_operation_xyz
  'x, y, z'

loop_
  _atom_site_type_symbol
  _atom_site_label
  _atom_site_symmetry_multiplicity
  _atom_site_fract_x
  _atom_site_fract_y
  _atom_site_fract_z
  _atom_site_occupancy
  Ti  Ti1       1.0  0.25000009842746573  0.24999989324221156  0.24999996630797036  1.0000
  Ti  Ti2       1.0  0.7499999975955979  0.7500000749169774  0.7499999995310287  1.0000
  Ga  Ga1       1.0  0.9999999810509246  0.9999999982742782  5.542687414297625e-08  1.0000
  Te  Te1       1.0  0.26563446243896427  0.26563447240263965  0.734365542418306  1.0000
  Te  Te2       1.0  0.7343654905693081  0.7343655440767659  0.26563448626748837  1.0000
  Te  Te3       1.0  0.7343655398509761  0.26563444149187687  0.2656344514295964  1.0000
  Te  Te4       1.0  0.2656345427780283  0.7343655180387016  0.734365466240801  1.0000
  Te  Te5       1.0  0.26563443860949487  0.7343656059564461  0.2656344902827895  1.0000
  Te  Te6       1.0  0.7343654501551857  0.265634451940288  0.7343655371347219  1.0000
