data_image0
_chemical_formula_structural       Ti2GaO6
_chemical_formula_sum              "Ti2 Ga1 O6"
_cell_length_a       4.891836930520714
_cell_length_b       4.891836824423793
_cell_length_c       4.891836897316618
_cell_angle_alpha    59.999998144024474
_cell_angle_beta     59.99999926932599
_cell_angle_gamma    59.999998720271364

_space_group_name_H-M_alt    "P 1"
_space_group_IT_number       1

loop_
  _space_group_symop_operation_xyz
  'x, y, z'

loop_
  _atom_site_type_symbol
  _atom_site_label
  _atom_site_symmetry_multiplicity
  _atom_site_fract_x
  _atom_site_fract_y
  _atom_site_fract_z
  _atom_site_occupancy
  Ti  Ti1       1.0  0.2500006477182296  0.2499998321850693  0.2499995801394668  1.0000
  Ti  Ti2       1.0  0.7500000063829734  0.7500008385117799  0.7500002009882197  1.0000
  Ga  Ga1       1.0  5.150486945277205e-09  0.9999999774671469  4.602739526214555e-09  1.0000
  O   O1        1.0  0.2632021437568533  0.2632020227428054  0.7367980108099885  1.0000
  O   O2        1.0  0.736797697927796  0.7367979269027465  0.263202087322824  1.0000
  O   O3        1.0  0.7367977705153492  0.2632019861799807  0.2632021721469621  1.0000
  O   O4        1.0  0.26320183827298854  0.7367977982246503  0.7367979001900636  1.0000
  O   O5        1.0  0.2632022378308891  0.7367977462492326  0.26320196296058307  1.0000
  O   O6        1.0  0.7367976366918061  0.26320184287067144  0.7367980782400714  1.0000
