data_image0
_chemical_formula_structural       Ti2GaBr6
_chemical_formula_sum              "Ti2 Ga1 Br6"
_cell_length_a       6.858038335181438
_cell_length_b       6.858038314048927
_cell_length_c       6.858038255611567
_cell_angle_alpha    59.99999914506702
_cell_angle_beta     59.99999858541382
_cell_angle_gamma    59.999998494179025

_space_group_name_H-M_alt    "P 1"
_space_group_IT_number       1

loop_
  _space_group_symop_operation_xyz
  'x, y, z'

loop_
  _atom_site_type_symbol
  _atom_site_label
  _atom_site_symmetry_multiplicity
  _atom_site_fract_x
  _atom_site_fract_y
  _atom_site_fract_z
  _atom_site_occupancy
  Ti  Ti1       1.0  0.25000001751566153  0.24999999952842206  0.249999964380077  1.0000
  Ti  Ti2       1.0  0.7500000498944897  0.7499999610823511  0.7499999788343682  1.0000
  Ga  Ga1       1.0  0.9999999789958247  1.2500971630515028e-08  2.4665603054522154e-08  1.0000
  Br  Br1       1.0  0.2551486886826194  0.25514874123603826  0.7448512960602421  1.0000
  Br  Br2       1.0  0.7448512952039805  0.7448512729503278  0.25514871462132843  1.0000
  Br  Br3       1.0  0.7448513035619727  0.2551487276178041  0.25514871536119704  1.0000
  Br  Br4       1.0  0.2551486868727553  0.744851266924178  0.7448512974940726  1.0000
  Br  Br5       1.0  0.2551486984090253  0.7448512841939953  0.25514874355619876  1.0000
  Br  Br6       1.0  0.7448512786405662  0.2551487353499301  0.7448512722395252  1.0000
