data_image0
_chemical_formula_structural       Ti2GaF6
_chemical_formula_sum              "Ti2 Ga1 F6"
_cell_length_a       5.418508184291641
_cell_length_b       5.4185080505248955
_cell_length_c       5.418507899132164
_cell_angle_alpha    59.999996782942674
_cell_angle_beta     59.99999680230599
_cell_angle_gamma    59.99999719867139

_space_group_name_H-M_alt    "P 1"
_space_group_IT_number       1

loop_
  _space_group_symop_operation_xyz
  'x, y, z'

loop_
  _atom_site_type_symbol
  _atom_site_label
  _atom_site_symmetry_multiplicity
  _atom_site_fract_x
  _atom_site_fract_y
  _atom_site_fract_z
  _atom_site_occupancy
  Ti  Ti1       1.0  0.2499998954064654  0.25000028262266966  0.249999978804433  1.0000
  Ti  Ti2       1.0  0.7500000750054303  0.7500000906678006  0.7499997958077287  1.0000
  Ga  Ga1       1.0  2.908099005533146e-08  2.2602971392949594e-09  5.261383630437733e-08  1.0000
  F   F1        1.0  0.24660422831493417  0.24660434531473507  0.75339562260199  1.0000
  F   F2        1.0  0.7533958625835203  0.753395557833511  0.24660432683801461  1.0000
  F   F3        1.0  0.7533956408940549  0.24660417699396328  0.2466044240426995  1.0000
  F   F4        1.0  0.2466043191731977  0.753395658345306  0.7533957151482009  1.0000
  F   F5        1.0  0.24660431516183254  0.7533956885020825  0.24660435820021578  1.0000
  F   F6        1.0  0.7533956843830268  0.24660416265928048  0.7533957625684652  1.0000
