data_image0
_chemical_formula_structural       Ti2GaI6
_chemical_formula_sum              "Ti2 Ga1 I6"
_cell_length_a       7.531606132186087
_cell_length_b       7.531606165623758
_cell_length_c       7.531606115641956
_cell_angle_alpha    60.00000066290728
_cell_angle_beta     60.00000078219754
_cell_angle_gamma    60.0000004040584

_space_group_name_H-M_alt    "P 1"
_space_group_IT_number       1

loop_
  _space_group_symop_operation_xyz
  'x, y, z'

loop_
  _atom_site_type_symbol
  _atom_site_label
  _atom_site_symmetry_multiplicity
  _atom_site_fract_x
  _atom_site_fract_y
  _atom_site_fract_z
  _atom_site_occupancy
  Ti  Ti1       1.0  0.2499999982807457  0.2499999730082152  0.250000043377885  1.0000
  Ti  Ti2       1.0  0.7499999735934547  0.7500000149669255  0.7499999533744115  1.0000
  Ga  Ga1       1.0  2.768951749871854e-08  0.999999995121579  1.1165998702176739e-08  1.0000
  I   I1        1.0  0.2556206237825635  0.2556206306994455  0.7443793729094145  1.0000
  I   I2        1.0  0.7443793589936608  0.7443793751632392  0.25562065591892996  1.0000
  I   I3        1.0  0.7443793578217632  0.25562062126874513  0.2556206535330963  1.0000
  I   I4        1.0  0.2556206630199111  0.7443793715848167  0.7443793335568475  1.0000
  I   I5        1.0  0.25562063167591964  0.744379376943177  0.2556206311470003  1.0000
  I   I6        1.0  0.7443793651616079  0.2556206419286303  0.7443793429862517  1.0000
