data_image0
_chemical_formula_structural       Ti2GaCl6
_chemical_formula_sum              "Ti2 Ga1 Cl6"
_cell_length_a       6.566585360411035
_cell_length_b       6.566585261750617
_cell_length_c       6.566585339129323
_cell_angle_alpha    60.00000051937806
_cell_angle_beta     60.00000079128402
_cell_angle_gamma    60.00000002845003

_space_group_name_H-M_alt    "P 1"
_space_group_IT_number       1

loop_
  _space_group_symop_operation_xyz
  'x, y, z'

loop_
  _atom_site_type_symbol
  _atom_site_label
  _atom_site_symmetry_multiplicity
  _atom_site_fract_x
  _atom_site_fract_y
  _atom_site_fract_z
  _atom_site_occupancy
  Ti  Ti1       1.0  0.25000009462673095  0.25000004324333924  0.24999988997853426  1.0000
  Ti  Ti2       1.0  0.7499998363839524  0.7499999898462568  0.7500000702259052  1.0000
  Ga  Ga1       1.0  0.9999999722731865  9.32558446443548e-09  4.57492904675984e-08  1.0000
  Cl  Cl1       1.0  0.2525165776197403  0.2525164571315961  0.7474834720917279  1.0000
  Cl  Cl2       1.0  0.7474834805509105  0.747483516274262  0.2525165381319797  1.0000
  Cl  Cl3       1.0  0.7474834832622872  0.2525164937449365  0.25251651612841464  1.0000
  Cl  Cl4       1.0  0.25251656396760125  0.7474834386283511  0.7474835033304825  1.0000
  Cl  Cl5       1.0  0.25251656811681783  0.7474834739737993  0.25251648138304544  1.0000
  Cl  Cl6       1.0  0.7474834211177162  0.2525165796320821  0.7474834866600333  1.0000
