data_image0
_chemical_formula_structural       Ti2GaSe6
_chemical_formula_sum              "Ti2 Ga1 Se6"
_cell_length_a       6.376227187964831
_cell_length_b       6.37622721821597
_cell_length_c       6.37622717447696
_cell_angle_alpha    59.999998297982934
_cell_angle_beta     59.99999875985667
_cell_angle_gamma    59.99999985533075

_space_group_name_H-M_alt    "P 1"
_space_group_IT_number       1

loop_
  _space_group_symop_operation_xyz
  'x, y, z'

loop_
  _atom_site_type_symbol
  _atom_site_label
  _atom_site_symmetry_multiplicity
  _atom_site_fract_x
  _atom_site_fract_y
  _atom_site_fract_z
  _atom_site_occupancy
  Ti  Ti1       1.0  0.25000007671491703  0.25000007217579895  0.24999991673130245  1.0000
  Ti  Ti2       1.0  0.7500002290903878  0.7499998285260631  0.7499998506222284  1.0000
  Ga  Ga1       1.0  3.4627685744538704e-08  0.9999999884752085  0.9999999680603205  1.0000
  Se  Se1       1.0  0.272619106610391  0.27261916264589525  0.727380903477685  1.0000
  Se  Se2       1.0  0.7273808190404893  0.7273808571454784  0.272619198290626  1.0000
  Se  Se3       1.0  0.727380689323484  0.2726192399434729  0.27261919148093533  1.0000
  Se  Se4       1.0  0.27261913756646927  0.7273807990558873  0.7273809186973357  1.0000
  Se  Se5       1.0  0.2726190473481252  0.7273808432439287  0.2726192933811825  1.0000
  Se  Se6       1.0  0.7273808520706878  0.27261922264661376  0.7273807733603685  1.0000
