data_image0
_chemical_formula_structural       Ti2IrBr6
_chemical_formula_sum              "Ti2 Ir1 Br6"
_cell_length_a       6.881619679928094
_cell_length_b       6.881619755894288
_cell_length_c       6.881619600738224
_cell_angle_alpha    60.00000063489361
_cell_angle_beta     59.999999931326656
_cell_angle_gamma    59.99999949825716

_space_group_name_H-M_alt    "P 1"
_space_group_IT_number       1

loop_
  _space_group_symop_operation_xyz
  'x, y, z'

loop_
  _atom_site_type_symbol
  _atom_site_label
  _atom_site_symmetry_multiplicity
  _atom_site_fract_x
  _atom_site_fract_y
  _atom_site_fract_z
  _atom_site_occupancy
  Ti  Ti1       1.0  0.24999997278104472  0.2499999284672942  0.25000009912374715  1.0000
  Ti  Ti2       1.0  0.7499999544901276  0.7500000897362968  0.7500000094256876  1.0000
  Ir  Ir1       1.0  4.44060200806545e-09  1.779733357226401e-09  0.999999970733199  1.0000
  Br  Br1       1.0  0.25087720820184856  0.25087714860123433  0.7491228189757568  1.0000
  Br  Br2       1.0  0.7491228321200651  0.7491228073116857  0.2508771610202558  1.0000
  Br  Br3       1.0  0.7491228424108314  0.250877157135803  0.25087716735343957  1.0000
  Br  Br4       1.0  0.25087715296121277  0.7491228681867207  0.7491228280224858  1.0000
  Br  Br5       1.0  0.2508771749516961  0.7491228341523953  0.2508771812867066  1.0000
  Br  Br6       1.0  0.7491228556747364  0.25087716091466  0.7491227650890772  1.0000
