data_image0
_chemical_formula_structural       Ti2IrCl6
_chemical_formula_sum              "Ti2 Ir1 Cl6"
_cell_length_a       6.579999980517421
_cell_length_b       6.5799997714490965
_cell_length_c       6.579999758121976
_cell_angle_alpha    60.00000054746498
_cell_angle_beta     60.00000026121676
_cell_angle_gamma    60.00000024445182

_space_group_name_H-M_alt    "P 1"
_space_group_IT_number       1

loop_
  _space_group_symop_operation_xyz
  'x, y, z'

loop_
  _atom_site_type_symbol
  _atom_site_label
  _atom_site_symmetry_multiplicity
  _atom_site_fract_x
  _atom_site_fract_y
  _atom_site_fract_z
  _atom_site_occupancy
  Ti  Ti1       1.0  0.24999996427957516  0.24999998443781155  0.250000073705131  1.0000
  Ti  Ti2       1.0  0.7499998643684952  0.7500000966346457  0.7499999752400484  1.0000
  Ir  Ir1       1.0  2.1891707592531798e-08  0.9999999869707987  0.999999975811907  1.0000
  Cl  Cl1       1.0  0.25065224720615237  0.25065212822139893  0.7493478012203811  1.0000
  Cl  Cl2       1.0  0.7493478517823007  0.7493477946393313  0.25065217646289917  1.0000
  Cl  Cl3       1.0  0.7493478319415041  0.2506521788707618  0.25065217326044487  1.0000
  Cl  Cl4       1.0  0.25065220640525393  0.7493478258878041  0.7493478135516053  1.0000
  Cl  Cl5       1.0  0.2506521976017424  0.7493478178342838  0.25065218358748953  1.0000
  Cl  Cl6       1.0  0.7493478132876291  0.25065218506296755  0.749347823962939  1.0000
