data_image0
_chemical_formula_structural       Ti2IrF6
_chemical_formula_sum              "Ti2 Ir1 F6"
_cell_length_a       5.4549745148527515
_cell_length_b       5.454975826748822
_cell_length_c       5.454974126346268
_cell_angle_alpha    60.00000466467121
_cell_angle_beta     60.00000329358679
_cell_angle_gamma    60.00001670992186

_space_group_name_H-M_alt    "P 1"
_space_group_IT_number       1

loop_
  _space_group_symop_operation_xyz
  'x, y, z'

loop_
  _atom_site_type_symbol
  _atom_site_label
  _atom_site_symmetry_multiplicity
  _atom_site_fract_x
  _atom_site_fract_y
  _atom_site_fract_z
  _atom_site_occupancy
  Ti  Ti1       1.0  0.25000050502577  0.25000011379035947  0.2499986526936608  1.0000
  Ti  Ti2       1.0  0.7499990364192303  0.7499971532034679  0.7500003680367123  1.0000
  Ir  Ir1       1.0  6.208737064651478e-08  2.9636482919601654e-07  9.575227736618176e-08  1.0000
  F   F1        1.0  0.26191728797306574  0.2619186583492821  0.7380823811585082  1.0000
  F   F2        1.0  0.7380823150999064  0.7380820752148695  0.2619185051873109  1.0000
  F   F3        1.0  0.738082101201821  0.26191854125707187  0.2619173361767156  1.0000
  F   F4        1.0  0.26191860459109967  0.7380819767691745  0.7380825474553735  1.0000
  F   F5        1.0  0.2619185061508846  0.7380820807833022  0.26191727791584823  1.0000
  F   F6        1.0  0.7380815734258676  0.26191912202525447  0.7380828330796332  1.0000
