data_image0
_chemical_formula_structural       Ti2IrI6
_chemical_formula_sum              "Ti2 Ir1 I6"
_cell_length_a       7.453081716368314
_cell_length_b       7.453081784039522
_cell_length_c       7.453081739694207
_cell_angle_alpha    59.99999995751267
_cell_angle_beta     59.9999998801849
_cell_angle_gamma    59.99999978828882

_space_group_name_H-M_alt    "P 1"
_space_group_IT_number       1

loop_
  _space_group_symop_operation_xyz
  'x, y, z'

loop_
  _atom_site_type_symbol
  _atom_site_label
  _atom_site_symmetry_multiplicity
  _atom_site_fract_x
  _atom_site_fract_y
  _atom_site_fract_z
  _atom_site_occupancy
  Ti  Ti1       1.0  0.25000002971376994  0.2499999290946597  0.25000002415856604  1.0000
  Ti  Ti2       1.0  0.7499999751621009  0.7500000502076734  0.7500000127624505  1.0000
  Ir  Ir1       1.0  0.9999999877936188  0.9999999901403616  0.9999999774898382  1.0000
  I   I1        1.0  0.2507884955426508  0.25078851644508854  0.7492115042965368  1.0000
  I   I2        1.0  0.749211486703318  0.7492115121554374  0.25078848708888957  1.0000
  I   I3        1.0  0.7492115094858955  0.25078846106593183  0.25078851555727677  1.0000
  I   I4        1.0  0.25078849765886196  0.7492115346691324  0.7492114824949399  1.0000
  I   I5        1.0  0.2507885144524851  0.7492115031251558  0.2507884724201009  1.0000
  I   I6        1.0  0.7492115038971185  0.2507885008262738  0.7492115212884175  1.0000
