data_image0
_chemical_formula_structural       Ti2MoI6
_chemical_formula_sum              "Ti2 Mo1 I6"
_cell_length_a       7.586976306291686
_cell_length_b       7.586976268050228
_cell_length_c       7.58697616133598
_cell_angle_alpha    60.00000034525297
_cell_angle_beta     60.00000014450154
_cell_angle_gamma    59.99999872658959

_space_group_name_H-M_alt    "P 1"
_space_group_IT_number       1

loop_
  _space_group_symop_operation_xyz
  'x, y, z'

loop_
  _atom_site_type_symbol
  _atom_site_label
  _atom_site_symmetry_multiplicity
  _atom_site_fract_x
  _atom_site_fract_y
  _atom_site_fract_z
  _atom_site_occupancy
  Ti  Ti1       1.0  0.24999998579858834  0.24999999755376726  0.24999999654351557  1.0000
  Ti  Ti2       1.0  0.7499999993482965  0.7500000540036642  0.7499999775245444  1.0000
  Mo  Mo1       1.0  2.2030047536951633e-08  0.9999999887000907  0.9999999511393414  1.0000
  I   I1        1.0  0.25581720147385995  0.25581714725508076  0.7441828216487579  1.0000
  I   I2        1.0  0.7441827850578533  0.7441828316600786  0.25581719727436114  1.0000
  I   I3        1.0  0.7441828812640204  0.2558171426886579  0.2558171114067393  1.0000
  I   I4        1.0  0.2558171509262197  0.7441828362265008  0.744182905775887  1.0000
  I   I5        1.0  0.2558171029788529  0.7441828731196133  0.2558171485526076  1.0000
  I   I6        1.0  0.7441828667032379  0.2558171380810006  0.7441828850594142  1.0000
