data_image0
_chemical_formula_structural       Ti2MoCl6
_chemical_formula_sum              "Ti2 Mo1 Cl6"
_cell_length_a       6.515158841101109
_cell_length_b       6.5151587193946945
_cell_length_c       6.515158892355104
_cell_angle_alpha    59.99999904478069
_cell_angle_beta     59.99999860937503
_cell_angle_gamma    59.999998868219016

_space_group_name_H-M_alt    "P 1"
_space_group_IT_number       1

loop_
  _space_group_symop_operation_xyz
  'x, y, z'

loop_
  _atom_site_type_symbol
  _atom_site_label
  _atom_site_symmetry_multiplicity
  _atom_site_fract_x
  _atom_site_fract_y
  _atom_site_fract_z
  _atom_site_occupancy
  Ti  Ti1       1.0  0.25000006273240527  0.25000009745619156  0.24999999342033255  1.0000
  Ti  Ti2       1.0  0.7500000402586074  0.7499999333193414  0.7499996750578781  1.0000
  Mo  Mo1       1.0  0.9999999887394122  1.879839012132128e-09  3.0783368223620903e-08  1.0000
  Cl  Cl1       1.0  0.25773516456072665  0.25773521705170777  0.742264838712953  1.0000
  Cl  Cl2       1.0  0.7422648115751553  0.7422647742472096  0.2577353120004476  1.0000
  Cl  Cl3       1.0  0.7422647573231801  0.25773513853203645  0.2577352307956308  1.0000
  Cl  Cl4       1.0  0.2577352413338781  0.7422648490072028  0.7422648169092196  1.0000
  Cl  Cl5       1.0  0.2577351196343996  0.7422647627679579  0.2577352582629584  1.0000
  Cl  Cl6       1.0  0.7422648239729469  0.257735230410798  0.7422648279609279  1.0000
