data_image0
_chemical_formula_structural       Ti2MoBr6
_chemical_formula_sum              "Ti2 Mo1 Br6"
_cell_length_a       6.843669459888322
_cell_length_b       6.843669437556867
_cell_length_c       6.8436693971309674
_cell_angle_alpha    59.999999719593134
_cell_angle_beta     59.99999984197985
_cell_angle_gamma    60.00000072039327

_space_group_name_H-M_alt    "P 1"
_space_group_IT_number       1

loop_
  _space_group_symop_operation_xyz
  'x, y, z'

loop_
  _atom_site_type_symbol
  _atom_site_label
  _atom_site_symmetry_multiplicity
  _atom_site_fract_x
  _atom_site_fract_y
  _atom_site_fract_z
  _atom_site_occupancy
  Ti  Ti1       1.0  0.2500000867601377  0.24999988193553516  0.24999999655664584  1.0000
  Ti  Ti2       1.0  0.7500000393465289  0.7499999947791128  0.7499999168833988  1.0000
  Mo  Mo1       1.0  0.999999957511615  1.6106423052931957e-08  1.7574594358126804e-08  1.0000
  Br  Br1       1.0  0.25890539999684425  0.2589054832703758  0.7410945569518628  1.0000
  Br  Br2       1.0  0.7410945485357954  0.7410945920901602  0.25890543362451685  1.0000
  Br  Br3       1.0  0.7410945549043445  0.2589054552912319  0.25890545695179473  1.0000
  Br  Br4       1.0  0.25890543275973316  0.7410945735396365  0.7410945680089926  1.0000
  Br  Br5       1.0  0.25890542787038034  0.7410945645622611  0.2589054540909875  1.0000
  Br  Br6       1.0  0.7410945548518458  0.25890542847655473  0.7410945970815694  1.0000
