data_image0
_chemical_formula_structural       Ti2NO6
_chemical_formula_sum              "Ti2 N1 O6"
_cell_length_a       4.479257899899442
_cell_length_b       4.479257242957582
_cell_length_c       4.479258181979332
_cell_angle_alpha    60.00000180323745
_cell_angle_beta     60.00000054282919
_cell_angle_gamma    59.999999195853306

_space_group_name_H-M_alt    "P 1"
_space_group_IT_number       1

loop_
  _space_group_symop_operation_xyz
  'x, y, z'

loop_
  _atom_site_type_symbol
  _atom_site_label
  _atom_site_symmetry_multiplicity
  _atom_site_fract_x
  _atom_site_fract_y
  _atom_site_fract_z
  _atom_site_occupancy
  Ti  Ti1       1.0  0.2499994583557127  0.25000037460643265  0.25000002886345113  1.0000
  Ti  Ti2       1.0  0.7500002869998387  0.7499994559214557  0.7500003039147561  1.0000
  N   N1        1.0  0.999999496142196  0.9999999261751045  1.3716099101527e-06  1.0000
  O   O1        1.0  0.2531085337155169  0.2531085660458253  0.7468914289975579  1.0000
  O   O2        1.0  0.7468917922801072  0.7468917730541845  0.25310808011053143  1.0000
  O   O3        1.0  0.7468920023271166  0.25310805813126175  0.25310797654659933  1.0000
  O   O4        1.0  0.25310865227090384  0.7468914962364211  0.746891251613554  1.0000
  O   O5        1.0  0.2531081783919997  0.746891873299858  0.25310809750390645  1.0000
  O   O6        1.0  0.7468915481272627  0.25310853962511304  0.7468914154584231  1.0000
