data_image0
_chemical_formula_structural       Ti2NF6
_chemical_formula_sum              "Ti2 N1 F6"
_cell_length_a       4.6473593430924725
_cell_length_b       4.647359133109232
_cell_length_c       4.647359347427434
_cell_angle_alpha    60.00000038617667
_cell_angle_beta     60.000000324048344
_cell_angle_gamma    59.99999903918814

_space_group_name_H-M_alt    "P 1"
_space_group_IT_number       1

loop_
  _space_group_symop_operation_xyz
  'x, y, z'

loop_
  _atom_site_type_symbol
  _atom_site_label
  _atom_site_symmetry_multiplicity
  _atom_site_fract_x
  _atom_site_fract_y
  _atom_site_fract_z
  _atom_site_occupancy
  Ti  Ti1       1.0  0.24999995084636828  0.24999995684086898  0.25000005824675364  1.0000
  Ti  Ti2       1.0  0.7500000718115368  0.7500000549975707  0.7499999793218451  1.0000
  N   N1        1.0  0.9999999941522724  2.6353533471171203e-09  0.9999998380724591  1.0000
  F   F1        1.0  0.2293461231386923  0.22934616322168697  0.7706538569984879  1.0000
  F   F2        1.0  0.7706539208517834  0.7706538591581787  0.22934614741903595  1.0000
  F   F3        1.0  0.7706538160338046  0.22934617861112552  0.22934618652311095  1.0000
  F   F4        1.0  0.22934610327261773  0.7706538674869496  0.7706538145833455  1.0000
  F   F5        1.0  0.2293461427267961  0.7706538327638225  0.2293462282900671  1.0000
  F   F6        1.0  0.7706539090448908  0.22934612900284118  0.7706538326680856  1.0000
