data_image0
_chemical_formula_structural       Ti2PF6
_chemical_formula_sum              "Ti2 P1 F6"
_cell_length_a       5.443641415858381
_cell_length_b       5.443636085543892
_cell_length_c       5.443641055261114
_cell_angle_alpha    59.99996689166727
_cell_angle_beta     59.99997946987114
_cell_angle_gamma    59.999974843312515

_space_group_name_H-M_alt    "P 1"
_space_group_IT_number       1

loop_
  _space_group_symop_operation_xyz
  'x, y, z'

loop_
  _atom_site_type_symbol
  _atom_site_label
  _atom_site_symmetry_multiplicity
  _atom_site_fract_x
  _atom_site_fract_y
  _atom_site_fract_z
  _atom_site_occupancy
  Ti  Ti1       1.0  0.25000244450749853  0.24999940410988247  0.24999951634526812  1.0000
  Ti  Ti2       1.0  0.7499969998383652  0.7500061836050369  0.7499994473428863  1.0000
  P   P1        1.0  0.9999999891963973  0.9999990460566148  0.9999999992410006  1.0000
  F   F1        1.0  0.25586641967177737  0.2558605020266175  0.7441362240948943  1.0000
  F   F2        1.0  0.744134839625758  0.7441386735691435  0.25586289439110516  1.0000
  F   F3        1.0  0.7441347197339986  0.25586328142066794  0.25586297893665233  1.0000
  F   F4        1.0  0.2558646644633442  0.7441351877168756  0.7441387492990289  1.0000
  F   F5        1.0  0.2558623041961406  0.7441381812138775  0.2558646683018618  1.0000
  F   F6        1.0  0.7441378649463267  0.25585924398566023  0.7441355067328679  1.0000
