data_image0
_chemical_formula_structural       Ti2PBr6
_chemical_formula_sum              "Ti2 P1 Br6"
_cell_length_a       6.843367835809867
_cell_length_b       6.843367625467765
_cell_length_c       6.84336774684576
_cell_angle_alpha    59.99999887660087
_cell_angle_beta     59.99999876123659
_cell_angle_gamma    59.9999994804457

_space_group_name_H-M_alt    "P 1"
_space_group_IT_number       1

loop_
  _space_group_symop_operation_xyz
  'x, y, z'

loop_
  _atom_site_type_symbol
  _atom_site_label
  _atom_site_symmetry_multiplicity
  _atom_site_fract_x
  _atom_site_fract_y
  _atom_site_fract_z
  _atom_site_occupancy
  Ti  Ti1       1.0  0.25000000119470367  0.2500000040326023  0.24999995911001321  1.0000
  Ti  Ti2       1.0  0.7499999371641982  0.7500000443120746  0.7500000434822837  1.0000
  P   P1        1.0  6.357458282102545e-09  0.9999999910515922  4.218012358656029e-09  1.0000
  Br  Br1       1.0  0.2589171139410352  0.25891708902456495  0.7410828888174384  1.0000
  Br  Br2       1.0  0.7410829070297034  0.7410829038399842  0.25891706075474463  1.0000
  Br  Br3       1.0  0.741082933884224  0.2589170501563151  0.25891712758734164  1.0000
  Br  Br4       1.0  0.258917093461533  0.7410829033352397  0.7410829042409269  1.0000
  Br  Br5       1.0  0.2589171034973366  0.7410828924900735  0.25891710674283347  1.0000
  Br  Br6       1.0  0.7410829017756816  0.258917127219699  0.7410829015514271  1.0000
