data_image0
_chemical_formula_structural       Ti2PCl6
_chemical_formula_sum              "Ti2 P1 Cl6"
_cell_length_a       6.571213611722581
_cell_length_b       6.571213666832858
_cell_length_c       6.571213758716757
_cell_angle_alpha    59.99999818249854
_cell_angle_beta     59.999999263286256
_cell_angle_gamma    60.00000165841633

_space_group_name_H-M_alt    "P 1"
_space_group_IT_number       1

loop_
  _space_group_symop_operation_xyz
  'x, y, z'

loop_
  _atom_site_type_symbol
  _atom_site_label
  _atom_site_symmetry_multiplicity
  _atom_site_fract_x
  _atom_site_fract_y
  _atom_site_fract_z
  _atom_site_occupancy
  Ti  Ti1       1.0  0.24999993952654703  0.2500001429033946  0.24999991828409143  1.0000
  Ti  Ti2       1.0  0.7500002074655158  0.7499998472036068  0.7499999211649195  1.0000
  P   P1        1.0  0.9999999009932334  0.9999999701791469  3.702161036478271e-08  1.0000
  Cl  Cl1       1.0  0.2538232708137194  0.25382334730299133  0.7461767007183254  1.0000
  Cl  Cl2       1.0  0.7461767510783358  0.7461766912628863  0.2538233383608717  1.0000
  Cl  Cl3       1.0  0.7461766609318085  0.25382330382140567  0.25382336060477817  1.0000
  Cl  Cl4       1.0  0.25382328119449016  0.7461766788303756  0.7461766884863688  1.0000
  Cl  Cl5       1.0  0.25382331280686155  0.7461766155745186  0.25382337221504553  1.0000
  Cl  Cl6       1.0  0.7461766692023155  0.2538233950343107  0.7461766733919154  1.0000
