data_image0
_chemical_formula_structural       Ti2PI6
_chemical_formula_sum              "Ti2 P1 I6"
_cell_length_a       7.551697055565212
_cell_length_b       7.5516971254462995
_cell_length_c       7.551696941892022
_cell_angle_alpha    60.00000097614813
_cell_angle_beta     60.000000509382964
_cell_angle_gamma    59.999999328400364

_space_group_name_H-M_alt    "P 1"
_space_group_IT_number       1

loop_
  _space_group_symop_operation_xyz
  'x, y, z'

loop_
  _atom_site_type_symbol
  _atom_site_label
  _atom_site_symmetry_multiplicity
  _atom_site_fract_x
  _atom_site_fract_y
  _atom_site_fract_z
  _atom_site_occupancy
  Ti  Ti1       1.0  0.24999995041762327  0.24999991582224393  0.25000005518372875  1.0000
  Ti  Ti2       1.0  0.7499999797521858  0.7499999583025583  0.7499999164312744  1.0000
  P   P1        1.0  0.9999999976520748  1.6218140696366927e-08  0.9999999811470411  1.0000
  I   I1        1.0  0.2574800474565076  0.2574800345283868  0.742519967059405  1.0000
  I   I2        1.0  0.7425199786863133  0.7425199920469367  0.25748008294730124  1.0000
  I   I3        1.0  0.7425200238907012  0.25748000043181035  0.2574800108096892  1.0000
  I   I4        1.0  0.257480027628713  0.7425200050599299  0.7425199973243415  1.0000
  I   I5        1.0  0.2574799819166337  0.7425200090000508  0.25748002015628163  1.0000
  I   I6        1.0  0.742520015961064  0.25748005649881084  0.7425199768498126  1.0000
