data_image0
_chemical_formula_structural       Ti2RuBr6
_chemical_formula_sum              "Ti2 Ru1 Br6"
_cell_length_a       6.86359293090426
_cell_length_b       6.863592838142735
_cell_length_c       6.863592879356052
_cell_angle_alpha    59.99999999060193
_cell_angle_beta     60.00000031541165
_cell_angle_gamma    59.999998785550126

_space_group_name_H-M_alt    "P 1"
_space_group_IT_number       1

loop_
  _space_group_symop_operation_xyz
  'x, y, z'

loop_
  _atom_site_type_symbol
  _atom_site_label
  _atom_site_symmetry_multiplicity
  _atom_site_fract_x
  _atom_site_fract_y
  _atom_site_fract_z
  _atom_site_occupancy
  Ti  Ti1       1.0  0.24999999477002757  0.2500000242804027  0.24999994729687328  1.0000
  Ti  Ti2       1.0  0.7499999658216788  0.7500000425062755  0.750000017826427  1.0000
  Ru  Ru1       1.0  0.9999999833805462  0.9999999892935532  0.9999999801528042  1.0000
  Br  Br1       1.0  0.25262216371169277  0.25262215718225167  0.7473778692752475  1.0000
  Br  Br2       1.0  0.7473778502751786  0.7473778150308109  0.2526221820006071  1.0000
  Br  Br3       1.0  0.7473778808939945  0.2526221205530525  0.2526221500763971  1.0000
  Br  Br4       1.0  0.2526221469424216  0.7473778605820492  0.7473778461047793  1.0000
  Br  Br5       1.0  0.25262214761744534  0.7473778525082735  0.25262215119421705  1.0000
  Br  Br6       1.0  0.7473778726906408  0.25262214111768294  0.7473778483335484  1.0000
