data_image0
_chemical_formula_structural       Ti2RuCl6
_chemical_formula_sum              "Ti2 Ru1 Cl6"
_cell_length_a       6.54932470583957
_cell_length_b       6.549324893319419
_cell_length_c       6.549324810024889
_cell_angle_alpha    59.999998482920624
_cell_angle_beta     59.99999874424664
_cell_angle_gamma    59.99999975979574

_space_group_name_H-M_alt    "P 1"
_space_group_IT_number       1

loop_
  _space_group_symop_operation_xyz
  'x, y, z'

loop_
  _atom_site_type_symbol
  _atom_site_label
  _atom_site_symmetry_multiplicity
  _atom_site_fract_x
  _atom_site_fract_y
  _atom_site_fract_z
  _atom_site_occupancy
  Ti  Ti1       1.0  0.24999990791562104  0.24999994606863915  0.2500001511810971  1.0000
  Ti  Ti2       1.0  0.7499999422926595  0.7500001505013105  0.7499999499301983  1.0000
  Ru  Ru1       1.0  0.9999999766521206  2.244038626415484e-08  4.320624501235187e-08  1.0000
  Cl  Cl1       1.0  0.253988044510547  0.2539879036972527  0.7460119887079772  1.0000
  Cl  Cl2       1.0  0.746012043912684  0.7460120283098608  0.2539879625885158  1.0000
  Cl  Cl3       1.0  0.7460120362260957  0.2539879584617476  0.2539880093499298  1.0000
  Cl  Cl4       1.0  0.2539880067480648  0.7460120146860753  0.7460119624232425  1.0000
  Cl  Cl5       1.0  0.25398799788253773  0.7460120203980617  0.25398794878129705  1.0000
  Cl  Cl6       1.0  0.7460120403187678  0.25398795648982614  0.7460119929707714  1.0000
