data_image0
_chemical_formula_structural       Ti2RhF6
_chemical_formula_sum              "Ti2 Rh1 F6"
_cell_length_a       5.486524215239537
_cell_length_b       5.486524368298176
_cell_length_c       5.486523507109855
_cell_angle_alpha    59.99999525979753
_cell_angle_beta     60.000002021829246
_cell_angle_gamma    59.999996381912815

_space_group_name_H-M_alt    "P 1"
_space_group_IT_number       1

loop_
  _space_group_symop_operation_xyz
  'x, y, z'

loop_
  _atom_site_type_symbol
  _atom_site_label
  _atom_site_symmetry_multiplicity
  _atom_site_fract_x
  _atom_site_fract_y
  _atom_site_fract_z
  _atom_site_occupancy
  Ti  Ti1       1.0  0.24999884321892282  0.25000090890668525  0.25000012214799905  1.0000
  Ti  Ti2       1.0  0.7500002500216002  0.7499998872618553  0.7500006750990772  1.0000
  Rh  Rh1       1.0  0.9999999887109404  4.018101684581479e-08  0.9999999217613456  1.0000
  F   F1        1.0  0.25566973139164617  0.25566970075507717  0.7443302554505771  1.0000
  F   F2        1.0  0.7443307574188998  0.744329869892747  0.2556693121490957  1.0000
  F   F3        1.0  0.744330777236412  0.2556695161820545  0.2556698399335247  1.0000
  F   F4        1.0  0.2556692857346824  0.744330422791641  0.7443303615419874  1.0000
  F   F5        1.0  0.25566992535218247  0.744330027207658  0.2556693859764199  1.0000
  F   F6        1.0  0.7443304102447229  0.2556696684477633  0.7443301282882994  1.0000
