data_image0
_chemical_formula_structural       Ti2RhI6
_chemical_formula_sum              "Ti2 Rh1 I6"
_cell_length_a       7.438263900447708
_cell_length_b       7.438263910772387
_cell_length_c       7.438263952961417
_cell_angle_alpha    59.999999879144035
_cell_angle_beta     60.00000002423954
_cell_angle_gamma    60.00000070442305

_space_group_name_H-M_alt    "P 1"
_space_group_IT_number       1

loop_
  _space_group_symop_operation_xyz
  'x, y, z'

loop_
  _atom_site_type_symbol
  _atom_site_label
  _atom_site_symmetry_multiplicity
  _atom_site_fract_x
  _atom_site_fract_y
  _atom_site_fract_z
  _atom_site_occupancy
  Ti  Ti1       1.0  0.2499999671211034  0.250000027476642  0.25000001319825377  1.0000
  Ti  Ti2       1.0  0.7500000686920507  0.7500000182146073  0.7499999544280576  1.0000
  Rh  Rh1       1.0  0.9999999904193793  0.9999999868276266  1.2720896826646558e-08  1.0000
  I   I1        1.0  0.25066732417907756  0.2506673381626994  0.7493326623238119  1.0000
  I   I2        1.0  0.7493327055510404  0.7493326466063228  0.25066732401673414  1.0000
  I   I3        1.0  0.7493326543005808  0.250667320982821  0.25066735854415545  1.0000
  I   I4        1.0  0.25066729432915424  0.7493326835447608  0.7493326611561015  1.0000
  I   I5        1.0  0.2506673198590194  0.7493326589548617  0.2506673412706597  1.0000
  I   I6        1.0  0.7493326728023354  0.2506673159348804  0.7493326766103064  1.0000
