data_image0
_chemical_formula_structural       Ti2RhBr6
_chemical_formula_sum              "Ti2 Rh1 Br6"
_cell_length_a       6.822058984275108
_cell_length_b       6.8220590722273675
_cell_length_c       6.822059126570522
_cell_angle_alpha    60.000002454063086
_cell_angle_beta     60.00000159491345
_cell_angle_gamma    59.99999972700012

_space_group_name_H-M_alt    "P 1"
_space_group_IT_number       1

loop_
  _space_group_symop_operation_xyz
  'x, y, z'

loop_
  _atom_site_type_symbol
  _atom_site_label
  _atom_site_symmetry_multiplicity
  _atom_site_fract_x
  _atom_site_fract_y
  _atom_site_fract_z
  _atom_site_occupancy
  Ti  Ti1       1.0  0.24999998301234305  0.24999990950006812  0.24999997916126995  1.0000
  Ti  Ti2       1.0  0.7500000197974993  0.7499999529091502  0.7500000434882318  1.0000
  Rh  Rh1       1.0  1.31477085879333e-08  0.9999999910236413  0.9999999656659971  1.0000
  Br  Br1       1.0  0.25112937365518045  0.2511293743568919  0.7488706506492245  1.0000
  Br  Br2       1.0  0.7488706195944725  0.748870663988939  0.2511293723645554  1.0000
  Br  Br3       1.0  0.7488706538436861  0.2511293666480049  0.2511293479633404  1.0000
  Br  Br4       1.0  0.2511293276428359  0.7488706968316277  0.748870662501772  1.0000
  Br  Br5       1.0  0.2511293242382845  0.748870692976299  0.2511293482978112  1.0000
  Br  Br6       1.0  0.7488706829452315  0.2511293543458888  0.7488706412733627  1.0000
