data_image0
_chemical_formula_structural       Ti2RuI6
_chemical_formula_sum              "Ti2 Ru1 I6"
_cell_length_a       7.4846917234210695
_cell_length_b       7.484691587613449
_cell_length_c       7.484691573093124
_cell_angle_alpha    60.00000059528536
_cell_angle_beta     60.0000007533724
_cell_angle_gamma    60.00000015408758

_space_group_name_H-M_alt    "P 1"
_space_group_IT_number       1

loop_
  _space_group_symop_operation_xyz
  'x, y, z'

loop_
  _atom_site_type_symbol
  _atom_site_label
  _atom_site_symmetry_multiplicity
  _atom_site_fract_x
  _atom_site_fract_y
  _atom_site_fract_z
  _atom_site_occupancy
  Ti  Ti1       1.0  0.25000006071214165  0.2499999966760244  0.24999992350465622  1.0000
  Ti  Ti2       1.0  0.749999935700177  0.7500000767537289  0.7500000280652978  1.0000
  Ru  Ru1       1.0  7.074720236613744e-09  6.545332392678327e-09  0.999999983837551  1.0000
  I   I1        1.0  0.25139736733692475  0.251397313452149  0.7486026964439558  1.0000
  I   I2        1.0  0.7486026797696071  0.7486026634339509  0.2513973007637446  1.0000
  I   I3        1.0  0.7486026538293573  0.25139728766864444  0.2513973736035752  1.0000
  I   I4        1.0  0.2513973150488049  0.7486026924901217  0.74860267177046  1.0000
  I   I5        1.0  0.25139733452607305  0.7486026651187174  0.25139733283095644  1.0000
  I   I6        1.0  0.7486026449802262  0.2513972970403844  0.7486026881715742  1.0000
