data_image0
_chemical_formula_structural       Ti2SbSe6
_chemical_formula_sum              "Ti2 Sb1 Se6"
_cell_length_a       6.524802231847942
_cell_length_b       6.524802573597966
_cell_length_c       6.524802252080382
_cell_angle_alpha    60.00000597365017
_cell_angle_beta     60.00000842475887
_cell_angle_gamma    59.99999861217928

_space_group_name_H-M_alt    "P 1"
_space_group_IT_number       1

loop_
  _space_group_symop_operation_xyz
  'x, y, z'

loop_
  _atom_site_type_symbol
  _atom_site_label
  _atom_site_symmetry_multiplicity
  _atom_site_fract_x
  _atom_site_fract_y
  _atom_site_fract_z
  _atom_site_occupancy
  Ti  Ti1       1.0  0.250002273742406  0.24999869272519867  0.24999942367997377  1.0000
  Ti  Ti2       1.0  0.7500003411258617  0.7499990495626302  0.7500001694624314  1.0000
  Sb  Sb1       1.0  1.9807281247071567e-08  0.9999999511964297  4.0552573661031764e-08  1.0000
  Se  Se1       1.0  0.2892843761568761  0.28928506659738923  0.7107153432260732  1.0000
  Se  Se2       1.0  0.7107144971294823  0.7107161013258781  0.28928480943417495  1.0000
  Se  Se3       1.0  0.710714757444035  0.28928504252742604  0.2892846149848157  1.0000
  Se  Se4       1.0  0.28928437247808403  0.7107155359988578  0.710714977597243  1.0000
  Se  Se5       1.0  0.28928457876964714  0.7107152491451504  0.2892849785045937  1.0000
  Se  Se6       1.0  0.710714765698402  0.28928533876643864  0.7107156531045982  1.0000
