data_image0
_chemical_formula_structural       Ti2SbO6
_chemical_formula_sum              "Ti2 Sb1 O6"
_cell_length_a       5.158398049201784
_cell_length_b       5.158397819256718
_cell_length_c       5.158397920686333
_cell_angle_alpha    60.000000596372864
_cell_angle_beta     59.99999985417182
_cell_angle_gamma    59.99999880788851

_space_group_name_H-M_alt    "P 1"
_space_group_IT_number       1

loop_
  _space_group_symop_operation_xyz
  'x, y, z'

loop_
  _atom_site_type_symbol
  _atom_site_label
  _atom_site_symmetry_multiplicity
  _atom_site_fract_x
  _atom_site_fract_y
  _atom_site_fract_z
  _atom_site_occupancy
  Ti  Ti1       1.0  0.25000004759002303  0.2500001198102454  0.24999987410751198  1.0000
  Ti  Ti2       1.0  0.7499998967269175  0.7499998014764012  0.7500002123641556  1.0000
  Sb  Sb1       1.0  1.505217585976812e-07  0.9999999715087121  0.999999873072826  1.0000
  O   O1        1.0  0.26300412298955583  0.263004415520893  0.7369957059603841  1.0000
  O   O2        1.0  0.7369956923058776  0.7369956980819302  0.2630042771362551  1.0000
  O   O3        1.0  0.7369955398814818  0.26300432666166823  0.26300425822969437  1.0000
  O   O4        1.0  0.26300437452040853  0.736995637361907  0.7369958373397258  1.0000
  O   O5        1.0  0.26300437409385885  0.7369958069956146  0.26300426010723454  1.0000
  O   O6        1.0  0.7369958214068455  0.2630042068877082  0.7369956893687671  1.0000
