data_image0
_chemical_formula_structural       Ti2SbS6
_chemical_formula_sum              "Ti2 Sb1 S6"
_cell_length_a       6.450086368764804
_cell_length_b       6.450086551007061
_cell_length_c       6.450086765428957
_cell_angle_alpha    60.000000154210205
_cell_angle_beta     59.99999928183705
_cell_angle_gamma    59.9999986779357

_space_group_name_H-M_alt    "P 1"
_space_group_IT_number       1

loop_
  _space_group_symop_operation_xyz
  'x, y, z'

loop_
  _atom_site_type_symbol
  _atom_site_label
  _atom_site_symmetry_multiplicity
  _atom_site_fract_x
  _atom_site_fract_y
  _atom_site_fract_z
  _atom_site_occupancy
  Ti  Ti1       1.0  0.2500002302193716  0.24999979016574525  0.25000011362061536  1.0000
  Ti  Ti2       1.0  0.7499999169272321  0.7500003597740222  0.7500004563417068  1.0000
  Sb  Sb1       1.0  5.460590232037035e-09  2.6583252341760954e-08  0.9999999343663433  1.0000
  S   S1        1.0  0.26649920402694854  0.266499091024673  0.7335006258041004  1.0000
  S   S2        1.0  0.7335006517685123  0.7335010038497788  0.26649884296498616  1.0000
  S   S3        1.0  0.7335008388722062  0.26649914417861015  0.26649912595124736  1.0000
  S   S4        1.0  0.2664989811377029  0.7335009184161828  0.7335008900218354  1.0000
  S   S5        1.0  0.2664993565958482  0.7335008153628348  0.2664989894176427  1.0000
  S   S6        1.0  0.73350080430178  0.26649886367358755  0.7335009998293963  1.0000
