data_image0
_chemical_formula_structural       Ti2TaBr6
_chemical_formula_sum              "Ti2 Ta1 Br6"
_cell_length_a       7.016950020801157
_cell_length_b       7.016949886669481
_cell_length_c       7.016950125428452
_cell_angle_alpha    60.00000030641943
_cell_angle_beta     60.0000000302613
_cell_angle_gamma    60.0000001801471

_space_group_name_H-M_alt    "P 1"
_space_group_IT_number       1

loop_
  _space_group_symop_operation_xyz
  'x, y, z'

loop_
  _atom_site_type_symbol
  _atom_site_label
  _atom_site_symmetry_multiplicity
  _atom_site_fract_x
  _atom_site_fract_y
  _atom_site_fract_z
  _atom_site_occupancy
  Ti  Ti1       1.0  0.2500000478637446  0.25000008294982246  0.24999994075130733  1.0000
  Ti  Ti2       1.0  0.7500000150900835  0.7499999975105455  0.7499999751208198  1.0000
  Ta  Ta1       1.0  5.9178521437090926e-09  0.9999999773096809  2.1212318393707092e-08  1.0000
  Br  Br1       1.0  0.2552667448274029  0.25526675056527753  0.7447332610030162  1.0000
  Br  Br2       1.0  0.7447332360980727  0.7447332304067676  0.25526675702841173  1.0000
  Br  Br3       1.0  0.7447332007642805  0.2552667576793908  0.2552667670607848  1.0000
  Br  Br4       1.0  0.25526674181357417  0.7447332494737915  0.7447332456529205  1.0000
  Br  Br5       1.0  0.2552667270465609  0.7447332267876529  0.25526679267783403  1.0000
  Br  Br6       1.0  0.7447332844805795  0.2552667314940733  0.7447332228230413  1.0000
