data_image0
_chemical_formula_structural       Ti2TaI6
_chemical_formula_sum              "Ti2 Ta1 I6"
_cell_length_a       7.691132926685394
_cell_length_b       7.69113284270033
_cell_length_c       7.691132941789965
_cell_angle_alpha    60.00000020336774
_cell_angle_beta     59.99999992469367
_cell_angle_gamma    60.00000053195368

_space_group_name_H-M_alt    "P 1"
_space_group_IT_number       1

loop_
  _space_group_symop_operation_xyz
  'x, y, z'

loop_
  _atom_site_type_symbol
  _atom_site_label
  _atom_site_symmetry_multiplicity
  _atom_site_fract_x
  _atom_site_fract_y
  _atom_site_fract_z
  _atom_site_occupancy
  Ti  Ti1       1.0  0.25000000174218756  0.25000000333156797  0.24999997901370413  1.0000
  Ti  Ti2       1.0  0.7500000434444387  0.7499998953410738  0.7500000376685199  1.0000
  Ta  Ta1       1.0  0.9999999892330309  0.9999999872607075  0.9999999987511451  1.0000
  I   I1        1.0  0.25347325257712094  0.25347326511245666  0.7465267395082628  1.0000
  I   I2        1.0  0.7465267512068061  0.746526757768285  0.25347325527424  1.0000
  I   I3        1.0  0.7465267264693314  0.25347329867623875  0.2534732250745684  1.0000
  I   I4        1.0  0.25347324983511843  0.7465267480906754  0.7465267468008142  1.0000
  I   I5        1.0  0.25347325238505547  0.7465267541070617  0.25347328489305304  1.0000
  I   I6        1.0  0.7465267294850217  0.25347328947503006  0.7465267417004652  1.0000
