data_image0
_chemical_formula_structural       Tl2AuCl6
_chemical_formula_sum              "Tl2 Au1 Cl6"
_cell_length_a       7.055955374212216
_cell_length_b       7.055956230483112
_cell_length_c       7.055956043038036
_cell_angle_alpha    59.9999991318667
_cell_angle_beta     59.999997003129295
_cell_angle_gamma    60.00000067318047

_space_group_name_H-M_alt    "P 1"
_space_group_IT_number       1

loop_
  _space_group_symop_operation_xyz
  'x, y, z'

loop_
  _atom_site_type_symbol
  _atom_site_label
  _atom_site_symmetry_multiplicity
  _atom_site_fract_x
  _atom_site_fract_y
  _atom_site_fract_z
  _atom_site_occupancy
  Tl  Tl1       1.0  0.24999993470063037  0.2500000693668429  0.2499999706193786  1.0000
  Tl  Tl2       1.0  0.7500000563910432  0.7499999078139964  0.7499999911292832  1.0000
  Au  Au1       1.0  0.9999999548220545  5.207280755814291e-08  6.03284757282757e-08  1.0000
  Cl  Cl1       1.0  0.24760739111056984  0.24760729977036777  0.7523926837161422  1.0000
  Cl  Cl2       1.0  0.7523926326116497  0.7523926826177509  0.24760732572399924  1.0000
  Cl  Cl3       1.0  0.7523926367445664  0.24760730608085643  0.24760741025523855  1.0000
  Cl  Cl4       1.0  0.2476073735708879  0.7523927214370302  0.752392562064765  1.0000
  Cl  Cl5       1.0  0.24760738981176275  0.752392636231297  0.2476073600356531  1.0000
  Cl  Cl6       1.0  0.7523926318116794  0.24760731317737641  0.7523926513539336  1.0000
