data_image0
_chemical_formula_structural       Tl2AsBr6
_chemical_formula_sum              "Tl2 As1 Br6"
_cell_length_a       7.601702546041005
_cell_length_b       7.60170292439317
_cell_length_c       7.601702985303566
_cell_angle_alpha    60.00000059887861
_cell_angle_beta     60.0000002729747
_cell_angle_gamma    60.00000107736106

_space_group_name_H-M_alt    "P 1"
_space_group_IT_number       1

loop_
  _space_group_symop_operation_xyz
  'x, y, z'

loop_
  _atom_site_type_symbol
  _atom_site_label
  _atom_site_symmetry_multiplicity
  _atom_site_fract_x
  _atom_site_fract_y
  _atom_site_fract_z
  _atom_site_occupancy
  Tl  Tl1       1.0  0.2499999952264075  0.24999997298243523  0.2500000055204046  1.0000
  Tl  Tl2       1.0  0.7500000571170587  0.7499999962822841  0.7499999895326174  1.0000
  As  As1       1.0  0.9999999269483038  8.700185027301476e-08  0.9999997088780668  1.0000
  Br  Br1       1.0  0.24553904584717276  0.2455391117575575  0.7544609472046991  1.0000
  Br  Br2       1.0  0.7544608506682262  0.7544608510625805  0.2455391855509166  1.0000
  Br  Br3       1.0  0.7544608907921653  0.2455391543429865  0.24553914646165434  1.0000
  Br  Br4       1.0  0.24553906562243213  0.7544609067570198  0.7544609361453133  1.0000
  Br  Br5       1.0  0.24553913753644993  0.7544608624727598  0.2455391494751506  1.0000
  Br  Br6       1.0  0.7544610410079893  0.24553904717958047  0.7544609517260145  1.0000
