data_image0
_chemical_formula_structural       Tl2AgCl6
_chemical_formula_sum              "Tl2 Ag1 Cl6"
_cell_length_a       7.152429943707573
_cell_length_b       7.152429829092123
_cell_length_c       7.152429921046341
_cell_angle_alpha    59.999999146184706
_cell_angle_beta     59.99999918208921
_cell_angle_gamma    59.999998996422555

_space_group_name_H-M_alt    "P 1"
_space_group_IT_number       1

loop_
  _space_group_symop_operation_xyz
  'x, y, z'

loop_
  _atom_site_type_symbol
  _atom_site_label
  _atom_site_symmetry_multiplicity
  _atom_site_fract_x
  _atom_site_fract_y
  _atom_site_fract_z
  _atom_site_occupancy
  Tl  Tl1       1.0  0.24999995567186553  0.25000001616776085  0.2500000170465327  1.0000
  Tl  Tl2       1.0  0.7499999961046419  0.7499999954204946  0.7500000257196051  1.0000
  Ag  Ag1       1.0  1.0144809337380996e-07  0.9999999571913002  0.999999836460183  1.0000
  Cl  Cl1       1.0  0.24197039725284708  0.24197038939112533  0.7580295942738237  1.0000
  Cl  Cl2       1.0  0.7580297380943628  0.7580296187724336  0.24197032346615363  1.0000
  Cl  Cl3       1.0  0.7580295428233457  0.24197040926754917  0.24197052001924968  1.0000
  Cl  Cl4       1.0  0.24197026091355428  0.7580297461579375  0.7580296255131663  1.0000
  Cl  Cl5       1.0  0.24197037022009274  0.7580295876171992  0.24197047852778136  1.0000
  Cl  Cl6       1.0  0.7580296388948692  0.2419702955449568  0.7580295634308963  1.0000
