data_image0
_chemical_formula_structural       Tl2AsF6
_chemical_formula_sum              "Tl2 As1 F6"
_cell_length_a       6.248394974715268
_cell_length_b       6.24839564871088
_cell_length_c       6.2483955218806395
_cell_angle_alpha    59.9999991720759
_cell_angle_beta     59.99999838167375
_cell_angle_gamma    59.999999173380274

_space_group_name_H-M_alt    "P 1"
_space_group_IT_number       1

loop_
  _space_group_symop_operation_xyz
  'x, y, z'

loop_
  _atom_site_type_symbol
  _atom_site_label
  _atom_site_symmetry_multiplicity
  _atom_site_fract_x
  _atom_site_fract_y
  _atom_site_fract_z
  _atom_site_occupancy
  Tl  Tl1       1.0  0.25000001484424983  0.2500000484247207  0.2499999677975701  1.0000
  Tl  Tl2       1.0  0.7499999563158362  0.7500000551097902  0.7500002854585393  1.0000
  As  As1       1.0  5.973152200883407e-09  9.800474666421026e-09  0.9999999889123649  1.0000
  F   F1        1.0  0.21795747287682474  0.21795742725255285  0.7820425188625769  1.0000
  F   F2        1.0  0.7820425729525999  0.7820425077138  0.21795737483858826  1.0000
  F   F3        1.0  0.7820425332262927  0.21795749556996116  0.21795739339888895  1.0000
  F   F4        1.0  0.2179573491371364  0.7820425805232297  0.7820425834903402  1.0000
  F   F5        1.0  0.21795750119361873  0.7820425183525727  0.21795737337863436  1.0000
  F   F6        1.0  0.7820425843597404  0.2179573362498863  0.7820425534457985  1.0000
