data_image0
_chemical_formula_structural       Tl2AuI6
_chemical_formula_sum              "Tl2 Au1 I6"
_cell_length_a       7.812535736003131
_cell_length_b       7.812535715290294
_cell_length_c       7.812535839706226
_cell_angle_alpha    59.99999960534064
_cell_angle_beta     59.99999970650519
_cell_angle_gamma    59.99999804010633

_space_group_name_H-M_alt    "P 1"
_space_group_IT_number       1

loop_
  _space_group_symop_operation_xyz
  'x, y, z'

loop_
  _atom_site_type_symbol
  _atom_site_label
  _atom_site_symmetry_multiplicity
  _atom_site_fract_x
  _atom_site_fract_y
  _atom_site_fract_z
  _atom_site_occupancy
  Tl  Tl1       1.0  0.2500000402236497  0.2500000070536221  0.24999999610483944  1.0000
  Tl  Tl2       1.0  0.7499999373234428  0.7499999992135417  0.7500000167222742  1.0000
  Au  Au1       1.0  0.9999999682906892  0.999999957673011  7.413797956904681e-08  1.0000
  I   I1        1.0  0.26060995015969546  0.2606100009652767  0.7393900109422141  1.0000
  I   I2        1.0  0.7393901205020234  0.7393900053018854  0.26060995916756957  1.0000
  I   I3        1.0  0.7393900935079161  0.2606098725328095  0.2606099239689632  1.0000
  I   I4        1.0  0.260609918645617  0.7393901274636884  0.7393900490903806  1.0000
  I   I5        1.0  0.2606099466991559  0.7393901254422405  0.26060986446994433  1.0000
  I   I6        1.0  0.739390028578402  0.2606098965015861  0.7393901045337756  1.0000
