data_image0
_chemical_formula_structural       Tl2AgI6
_chemical_formula_sum              "Tl2 Ag1 I6"
_cell_length_a       7.831276584529733
_cell_length_b       7.83127692435165
_cell_length_c       7.83127701401055
_cell_angle_alpha    59.99999871173681
_cell_angle_beta     59.999999515900996
_cell_angle_gamma    60.00000091939108

_space_group_name_H-M_alt    "P 1"
_space_group_IT_number       1

loop_
  _space_group_symop_operation_xyz
  'x, y, z'

loop_
  _atom_site_type_symbol
  _atom_site_label
  _atom_site_symmetry_multiplicity
  _atom_site_fract_x
  _atom_site_fract_y
  _atom_site_fract_z
  _atom_site_occupancy
  Tl  Tl1       1.0  0.2500000528368946  0.249999943324056  0.2500000375735707  1.0000
  Tl  Tl2       1.0  0.749999935757852  0.7500000160780118  0.7500000186742791  1.0000
  Ag  Ag1       1.0  0.9999999030298373  0.9999998529920207  1.513584828928795e-07  1.0000
  I   I1        1.0  0.2617322220652378  0.261732192086899  0.7382677702588442  1.0000
  I   I2        1.0  0.7382679052908728  0.7382679393457836  0.26173207185419267  1.0000
  I   I3        1.0  0.7382677418774558  0.2617322883253856  0.26173218557977246  1.0000
  I   I4        1.0  0.26173223338565293  0.7382677774228794  0.738267785852868  1.0000
  I   I5        1.0  0.2617322931474294  0.7382678222653103  0.26173212597061224  1.0000
  I   I6        1.0  0.7382677149425406  0.26173217154288114  0.7382678484185331  1.0000
