data_image0
_chemical_formula_structural       Tl2AgF6
_chemical_formula_sum              "Tl2 Ag1 F6"
_cell_length_a       6.164259504174347
_cell_length_b       6.164259266433784
_cell_length_c       6.164259146072026
_cell_angle_alpha    60.000002049391654
_cell_angle_beta     60.0000017304477
_cell_angle_gamma    60.00000108405006

_space_group_name_H-M_alt    "P 1"
_space_group_IT_number       1

loop_
  _space_group_symop_operation_xyz
  'x, y, z'

loop_
  _atom_site_type_symbol
  _atom_site_label
  _atom_site_symmetry_multiplicity
  _atom_site_fract_x
  _atom_site_fract_y
  _atom_site_fract_z
  _atom_site_occupancy
  Tl  Tl1       1.0  0.2500000680331732  0.2500000022993276  0.2499999033636288  1.0000
  Tl  Tl2       1.0  0.7499999844589341  0.7500000645165875  0.7499999565718839  1.0000
  Ag  Ag1       1.0  6.395567884658213e-09  0.9999999920526073  4.295454141296253e-08  1.0000
  F   F1        1.0  0.23570471017659467  0.23570470008272373  0.7642953203785052  1.0000
  F   F2        1.0  0.764295302809151  0.7642952773250165  0.23570472243888754  1.0000
  F   F3        1.0  0.7642951988178465  0.23570470211031988  0.23570477757138567  1.0000
  F   F4        1.0  0.23570477062935405  0.7642952991395996  0.7642952134485016  1.0000
  F   F5        1.0  0.23570471092835088  0.7642952227947164  0.23570478538947917  1.0000
  F   F6        1.0  0.7642952539023665  0.2357047585867192  0.7642952097616165  1.0000
