data_image0
_chemical_formula_structural       Tl2AgBr6
_chemical_formula_sum              "Tl2 Ag1 Br6"
_cell_length_a       7.334649257377413
_cell_length_b       7.334649347147247
_cell_length_c       7.334649276990386
_cell_angle_alpha    59.99999920464959
_cell_angle_beta     60.00000126798814
_cell_angle_gamma    60.00000064655104

_space_group_name_H-M_alt    "P 1"
_space_group_IT_number       1

loop_
  _space_group_symop_operation_xyz
  'x, y, z'

loop_
  _atom_site_type_symbol
  _atom_site_label
  _atom_site_symmetry_multiplicity
  _atom_site_fract_x
  _atom_site_fract_y
  _atom_site_fract_z
  _atom_site_occupancy
  Tl  Tl1       1.0  0.24999999164141185  0.2500000132055544  0.24999997097614304  1.0000
  Tl  Tl2       1.0  0.7499999999549567  0.7499999928620663  0.7499999905965616  1.0000
  Ag  Ag1       1.0  0.9999998546233403  0.9999999732830899  0.9999999224397788  1.0000
  Br  Br1       1.0  0.2539935124645395  0.2539935782349078  0.7460064609838521  1.0000
  Br  Br2       1.0  0.7460065615033521  0.7460065113230626  0.2539934531061006  1.0000
  Br  Br3       1.0  0.7460064810408512  0.2539935644052822  0.253993477387215  1.0000
  Br  Br4       1.0  0.25399351593054725  0.7460064349831085  0.7460066034526682  1.0000
  Br  Br5       1.0  0.2539935640071098  0.7460064169890359  0.2539934990710745  1.0000
  Br  Br6       1.0  0.7460065129212172  0.25399351727688196  0.7460066125265504  1.0000
