data_image0
_chemical_formula_structural       Tl2AuBr6
_chemical_formula_sum              "Tl2 Au1 Br6"
_cell_length_a       7.283539758341472
_cell_length_b       7.28353988067846
_cell_length_c       7.283539795404966
_cell_angle_alpha    59.99999907032709
_cell_angle_beta     60.00000017855947
_cell_angle_gamma    60.000000872995805

_space_group_name_H-M_alt    "P 1"
_space_group_IT_number       1

loop_
  _space_group_symop_operation_xyz
  'x, y, z'

loop_
  _atom_site_type_symbol
  _atom_site_label
  _atom_site_symmetry_multiplicity
  _atom_site_fract_x
  _atom_site_fract_y
  _atom_site_fract_z
  _atom_site_occupancy
  Tl  Tl1       1.0  0.2500000180788209  0.24999998549879027  0.24999999532085235  1.0000
  Tl  Tl2       1.0  0.749999979323548  0.7500000052605723  0.7500000182583361  1.0000
  Au  Au1       1.0  1.561177584505405e-07  0.9999999882293295  9.944630559725828e-08  1.0000
  Br  Br1       1.0  0.2570258466205336  0.2570258161540322  0.7429741495108008  1.0000
  Br  Br2       1.0  0.7429741280428385  0.7429741477009435  0.2570258243610167  1.0000
  Br  Br3       1.0  0.7429741234091808  0.25702586445057823  0.2570258575706527  1.0000
  Br  Br4       1.0  0.2570258386345106  0.742974151531648  0.7429741226335962  1.0000
  Br  Br5       1.0  0.25702579577585416  0.7429741846464109  0.25702581673597014  1.0000
  Br  Br6       1.0  0.7429741132779046  0.25702586664782456  0.7429741064052178  1.0000
