data_image0
_chemical_formula_structural       Tl2AsI6
_chemical_formula_sum              "Tl2 As1 I6"
_cell_length_a       8.059613521020156
_cell_length_b       8.059613582658383
_cell_length_c       8.059613699674196
_cell_angle_alpha    59.99999902187753
_cell_angle_beta     59.99999950051346
_cell_angle_gamma    59.99999996659501

_space_group_name_H-M_alt    "P 1"
_space_group_IT_number       1

loop_
  _space_group_symop_operation_xyz
  'x, y, z'

loop_
  _atom_site_type_symbol
  _atom_site_label
  _atom_site_symmetry_multiplicity
  _atom_site_fract_x
  _atom_site_fract_y
  _atom_site_fract_z
  _atom_site_occupancy
  Tl  Tl1       1.0  0.2500000770037073  0.24999992338531454  0.2500000055305495  1.0000
  Tl  Tl2       1.0  0.7499999373894873  0.7500000664793944  0.7499999780181112  1.0000
  As  As1       1.0  0.9999999410854992  9.117644132664343e-09  6.5843318638581e-08  1.0000
  I   I1        1.0  0.24924090656958817  0.249240943061734  0.7507590796903716  1.0000
  I   I2        1.0  0.7507591151161879  0.7507591151853098  0.24924090200270427  1.0000
  I   I3        1.0  0.7507590491763007  0.24924092120982094  0.24924094720752815  1.0000
  I   I4        1.0  0.24924097232330594  0.7507590215470574  0.7507590216007229  1.0000
  I   I5        1.0  0.24924094517338904  0.7507590521734361  0.24924095080622977  1.0000
  I   I6        1.0  0.7507590585105566  0.24924094832852509  0.7507590439452176  1.0000
