data_image0
_chemical_formula_structural       Tl2AsBr6
_chemical_formula_sum              "Tl2 As1 Br6"
_cell_length_a       7.6040475387180875
_cell_length_b       7.604047497326861
_cell_length_c       7.604047736996156
_cell_angle_alpha    59.999998220074566
_cell_angle_beta     59.99999902230151
_cell_angle_gamma    59.99999920438078

_space_group_name_H-M_alt    "P 1"
_space_group_IT_number       1

loop_
  _space_group_symop_operation_xyz
  'x, y, z'

loop_
  _atom_site_type_symbol
  _atom_site_label
  _atom_site_symmetry_multiplicity
  _atom_site_fract_x
  _atom_site_fract_y
  _atom_site_fract_z
  _atom_site_occupancy
  Tl  Tl1       1.0  0.25000001546261813  0.2500000022947278  0.2499999857630151  1.0000
  Tl  Tl2       1.0  0.7499999916443169  0.7499999843351018  0.7500000051409784  1.0000
  As  As1       1.0  0.9999999978366639  3.382362273621301e-08  0.9999998815929098  1.0000
  Br  Br1       1.0  0.2454685427845374  0.2454685880910956  0.7545314294305803  1.0000
  Br  Br2       1.0  0.7545314345491044  0.7545314468581935  0.2454685706115768  1.0000
  Br  Br3       1.0  0.7545313685906099  0.24546865331679651  0.24546861189929836  1.0000
  Br  Br4       1.0  0.24546861018525587  0.7545313590834112  0.7545314210528018  1.0000
  Br  Br5       1.0  0.24546860907874066  0.7545313550635325  0.24546866337494508  1.0000
  Br  Br6       1.0  0.7545314276172589  0.24546859291072842  0.7545314320090694  1.0000
