data_image0
_chemical_formula_structural       Tl2AuF6
_chemical_formula_sum              "Tl2 Au1 F6"
_cell_length_a       6.146009119442528
_cell_length_b       6.146008826934171
_cell_length_c       6.146008888678467
_cell_angle_alpha    59.99999960454031
_cell_angle_beta     60.00000068232088
_cell_angle_gamma    59.9999978245301

_space_group_name_H-M_alt    "P 1"
_space_group_IT_number       1

loop_
  _space_group_symop_operation_xyz
  'x, y, z'

loop_
  _atom_site_type_symbol
  _atom_site_label
  _atom_site_symmetry_multiplicity
  _atom_site_fract_x
  _atom_site_fract_y
  _atom_site_fract_z
  _atom_site_occupancy
  Tl  Tl1       1.0  0.25000000832145813  0.2499999894234928  0.2500000220237029  1.0000
  Tl  Tl2       1.0  0.7499999832892897  0.7499999862052141  0.750000034010335  1.0000
  Au  Au1       1.0  5.315615137513244e-08  3.98549581569361e-09  0.9999999096004338  1.0000
  F   F1        1.0  0.23490202507497498  0.23490202019841505  0.7650980008786729  1.0000
  F   F2        1.0  0.7650980339244006  0.7650980012635029  0.2349019871549402  1.0000
  F   F3        1.0  0.7650980471841043  0.2349019163362693  0.23490198815726038  1.0000
  F   F4        1.0  0.23490194233948283  0.7650980373722059  0.7650980538473189  1.0000
  F   F5        1.0  0.2349019258971809  0.7650980505795081  0.23490195763576552  1.0000
  F   F6        1.0  0.76509800490877  0.23490196091866994  0.7650980343935437  1.0000
