data_image0
_chemical_formula_structural       Tl2AsCl6
_chemical_formula_sum              "Tl2 As1 Cl6"
_cell_length_a       7.2520843918196025
_cell_length_b       7.252083760182054
_cell_length_c       7.252084887780931
_cell_angle_alpha    59.99999552222856
_cell_angle_beta     59.99999549138244
_cell_angle_gamma    59.999997038297714

_space_group_name_H-M_alt    "P 1"
_space_group_IT_number       1

loop_
  _space_group_symop_operation_xyz
  'x, y, z'

loop_
  _atom_site_type_symbol
  _atom_site_label
  _atom_site_symmetry_multiplicity
  _atom_site_fract_x
  _atom_site_fract_y
  _atom_site_fract_z
  _atom_site_occupancy
  Tl  Tl1       1.0  0.25000003334953724  0.2500000047396158  0.2500000146631691  1.0000
  Tl  Tl2       1.0  0.7499999831726741  0.7499999922642112  0.7500000665217268  1.0000
  As  As1       1.0  0.9999998911623925  1.6888179424420398e-07  0.9999999479152883  1.0000
  Cl  Cl1       1.0  0.2400980588517014  0.24009792400256874  0.7599020542726604  1.0000
  Cl  Cl2       1.0  0.7599018955265646  0.7599019919379955  0.24009813160977161  1.0000
  Cl  Cl3       1.0  0.759902075957411  0.24009793862551018  0.24009792430428434  1.0000
  Cl  Cl4       1.0  0.2400980100132346  0.759901979003871  0.7599019949950448  1.0000
  Cl  Cl5       1.0  0.2400980227390125  0.759902038221773  0.24009796633256208  1.0000
  Cl  Cl6       1.0  0.7599020333958508  0.24009796891495944  0.7599019134785868  1.0000
