data_image0
_chemical_formula_structural       Tl2AsI6
_chemical_formula_sum              "Tl2 As1 I6"
_cell_length_a       8.0566658479382
_cell_length_b       8.056665758535477
_cell_length_c       8.056665553267965
_cell_angle_alpha    60.00000115868744
_cell_angle_beta     60.00000005423724
_cell_angle_gamma    60.000000218333966

_space_group_name_H-M_alt    "P 1"
_space_group_IT_number       1

loop_
  _space_group_symop_operation_xyz
  'x, y, z'

loop_
  _atom_site_type_symbol
  _atom_site_label
  _atom_site_symmetry_multiplicity
  _atom_site_fract_x
  _atom_site_fract_y
  _atom_site_fract_z
  _atom_site_occupancy
  Tl  Tl1       1.0  0.2500000970806139  0.2500000126530424  0.24999992162258997  1.0000
  Tl  Tl2       1.0  0.7499999213409657  0.7499999695517747  0.7500000709064666  1.0000
  As  As1       1.0  0.9999998614094304  1.2769372638491161e-07  0.9999998478149714  1.0000
  I   I1        1.0  0.24934922524628816  0.24934942620848907  0.7506506573899954  1.0000
  I   I2        1.0  0.7506507827229427  0.7506505529560016  0.24934937415681452  1.0000
  I   I3        1.0  0.750650717888692  0.2493493988338285  0.249349266376115  1.0000
  I   I4        1.0  0.24934930600496374  0.7506505970524596  0.750650737676709  1.0000
  I   I5        1.0  0.24934935383754409  0.7506505398624859  0.24934942566344379  1.0000
  I   I6        1.0  0.7506507453090984  0.24934936785432463  0.7506506928327452  1.0000
