data_image0
_chemical_formula_structural       Tl2BaF6
_chemical_formula_sum              "Tl2 Ba1 F6"
_cell_length_a       6.543468015425386
_cell_length_b       6.543468213388633
_cell_length_c       6.543466859690772
_cell_angle_alpha    60.0000053242824
_cell_angle_beta     60.00000559207496
_cell_angle_gamma    60.00000381521365

_space_group_name_H-M_alt    "P 1"
_space_group_IT_number       1

loop_
  _space_group_symop_operation_xyz
  'x, y, z'

loop_
  _atom_site_type_symbol
  _atom_site_label
  _atom_site_symmetry_multiplicity
  _atom_site_fract_x
  _atom_site_fract_y
  _atom_site_fract_z
  _atom_site_occupancy
  Tl  Tl1       1.0  0.2500000468755533  0.2500000882571253  0.2499999168875712  1.0000
  Tl  Tl2       1.0  0.7500000312055938  0.7499999259926067  0.75000012605858  1.0000
  Ba  Ba1       1.0  0.9999998736753337  0.9999999925131743  2.1972993282421e-07  1.0000
  F   F1        1.0  0.26774293127148074  0.2677428543272033  0.7322570776867084  1.0000
  F   F2        1.0  0.7322571428521648  0.7322571823830024  0.2677427726189326  1.0000
  F   F3        1.0  0.7322570908262874  0.2677429277610551  0.2677428261988758  1.0000
  F   F4        1.0  0.26774293126897336  0.7322569685712087  0.7322571203099304  1.0000
  F   F5        1.0  0.26774291583833215  0.7322570977919639  0.26774282880871664  1.0000
  F   F6        1.0  0.7322570425302486  0.26774296325041896  0.732257056510675  1.0000
