data_image0
_chemical_formula_structural       Tl2BiI6
_chemical_formula_sum              "Tl2 Bi1 I6"
_cell_length_a       8.270685792950163
_cell_length_b       8.27068574875839
_cell_length_c       8.27068582458901
_cell_angle_alpha    59.99999953279324
_cell_angle_beta     59.99999936044075
_cell_angle_gamma    60.00000035361438

_space_group_name_H-M_alt    "P 1"
_space_group_IT_number       1

loop_
  _space_group_symop_operation_xyz
  'x, y, z'

loop_
  _atom_site_type_symbol
  _atom_site_label
  _atom_site_symmetry_multiplicity
  _atom_site_fract_x
  _atom_site_fract_y
  _atom_site_fract_z
  _atom_site_occupancy
  Tl  Tl1       1.0  0.24999999469054296  0.24999996001965535  0.25000004889756566  1.0000
  Tl  Tl2       1.0  0.750000008790674  0.7500000236991146  0.7499999258859782  1.0000
  Bi  Bi1       1.0  0.9999999896778073  0.9999999555752117  9.237146927883085e-09  1.0000
  I   I1        1.0  0.26166858665390824  0.26166858982652963  0.7383314606480265  1.0000
  I   I2        1.0  0.7383314564538346  0.7383314634910754  0.26166857438634616  1.0000
  I   I3        1.0  0.7383314815905854  0.2616685303584349  0.26166854936038  1.0000
  I   I4        1.0  0.26166856986740766  0.7383314267054627  0.7383314377349137  1.0000
  I   I5        1.0  0.26166851515831935  0.7383314725727498  0.26166857360876716  1.0000
  I   I6        1.0  0.7383314023818387  0.2616685763023754  0.7383314188216663  1.0000
