data_image0
_chemical_formula_structural       Tl2BiF6
_chemical_formula_sum              "Tl2 Bi1 F6"
_cell_length_a       6.493735229500181
_cell_length_b       6.493735130700569
_cell_length_c       6.493735065159243
_cell_angle_alpha    60.00000002444764
_cell_angle_beta     60.00000058509669
_cell_angle_gamma    59.999999149286054

_space_group_name_H-M_alt    "P 1"
_space_group_IT_number       1

loop_
  _space_group_symop_operation_xyz
  'x, y, z'

loop_
  _atom_site_type_symbol
  _atom_site_label
  _atom_site_symmetry_multiplicity
  _atom_site_fract_x
  _atom_site_fract_y
  _atom_site_fract_z
  _atom_site_occupancy
  Tl  Tl1       1.0  0.2499999729043325  0.2499999747909985  0.2499999630963722  1.0000
  Tl  Tl2       1.0  0.7499999843421302  0.7500000262191926  0.7499999610859766  1.0000
  Bi  Bi1       1.0  1.4961954291521725e-08  0.999999992455837  3.9908332900303384e-09  1.0000
  F   F1        1.0  0.237147413764129  0.2371474794576949  0.7628526347453227  1.0000
  F   F2        1.0  0.7628526073517972  0.7628525913360011  0.23714745052251907  1.0000
  F   F3        1.0  0.7628526441542005  0.23714733822422257  0.2371474114888634  1.0000
  F   F4        1.0  0.2371475073295957  0.7628524854981406  0.7628525827559682  1.0000
  F   F5        1.0  0.2371473014247168  0.7628526697873785  0.23714736140610965  1.0000
  F   F6        1.0  0.7628525528292277  0.23714744815733677  0.7628526127832304  1.0000
