data_image0
_chemical_formula_structural       Tl2BeCl6
_chemical_formula_sum              "Tl2 Be1 Cl6"
_cell_length_a       7.1867179189966395
_cell_length_b       7.186718951842154
_cell_length_c       7.186715143863586
_cell_angle_alpha    60.000011776158765
_cell_angle_beta     60.00001021169835
_cell_angle_gamma    60.00003089450477

_space_group_name_H-M_alt    "P 1"
_space_group_IT_number       1

loop_
  _space_group_symop_operation_xyz
  'x, y, z'

loop_
  _atom_site_type_symbol
  _atom_site_label
  _atom_site_symmetry_multiplicity
  _atom_site_fract_x
  _atom_site_fract_y
  _atom_site_fract_z
  _atom_site_occupancy
  Tl  Tl1       1.0  0.2500000577855726  0.2500001504332523  0.24999996201031893  1.0000
  Tl  Tl2       1.0  0.7499998920314727  0.7499997287283457  0.750000518776213  1.0000
  Be  Be1       1.0  0.9999999555466281  5.623785258915202e-08  1.065039511833627e-09  1.0000
  Cl  Cl1       1.0  0.23100655014312105  0.2310058513382239  0.7689936673253969  1.0000
  Cl  Cl2       1.0  0.7689931071153778  0.7689944283050907  0.2310062098743035  1.0000
  Cl  Cl3       1.0  0.7689943059134332  0.23100600583345812  0.23100614751638684  1.0000
  Cl  Cl4       1.0  0.2310059072265692  0.7689938545822739  0.7689937448437381  1.0000
  Cl  Cl5       1.0  0.23100580701479484  0.7689938691138576  0.23100634938925865  1.0000
  Cl  Cl6       1.0  0.7689942920790936  0.23100610207340644  0.7689933665017492  1.0000
