data_image0
_chemical_formula_structural       Tl2BeF6
_chemical_formula_sum              "Tl2 Be1 F6"
_cell_length_a       5.265584394309215
_cell_length_b       5.265584364816814
_cell_length_c       5.2655844019964615
_cell_angle_alpha    60.000001192586645
_cell_angle_beta     60.000001227965114
_cell_angle_gamma    60.00000140631274

_space_group_name_H-M_alt    "P 1"
_space_group_IT_number       1

loop_
  _space_group_symop_operation_xyz
  'x, y, z'

loop_
  _atom_site_type_symbol
  _atom_site_label
  _atom_site_symmetry_multiplicity
  _atom_site_fract_x
  _atom_site_fract_y
  _atom_site_fract_z
  _atom_site_occupancy
  Tl  Tl1       1.0  0.24999993714043647  0.2500000535725122  0.25000005134056336  1.0000
  Tl  Tl2       1.0  0.7500000722268547  0.7499999769680488  0.7500000129409424  1.0000
  Be  Be1       1.0  5.3162170941352036e-08  0.9999999720886857  0.9999999911728208  1.0000
  F   F1        1.0  0.23671807537728742  0.23671805297832654  0.7632819079925378  1.0000
  F   F2        1.0  0.7632819498725337  0.7632819496509182  0.23671801417165522  1.0000
  F   F3        1.0  0.7632818800491008  0.23671804020236295  0.23671808787089293  1.0000
  F   F4        1.0  0.2367180396745159  0.7632819763825387  0.7632819104645637  1.0000
  F   F5        1.0  0.23671805813050872  0.7632819401716106  0.23671803614822365  1.0000
  F   F6        1.0  0.763281940827096  0.2367180229166053  0.7632819664107021  1.0000
