data_image0
_chemical_formula_structural       Tl2BaI6
_chemical_formula_sum              "Tl2 Ba1 I6"
_cell_length_a       8.53046690945814
_cell_length_b       8.530466706405118
_cell_length_c       8.530466449592092
_cell_angle_alpha    60.00000273151912
_cell_angle_beta     60.000001103681235
_cell_angle_gamma    59.99999668464144

_space_group_name_H-M_alt    "P 1"
_space_group_IT_number       1

loop_
  _space_group_symop_operation_xyz
  'x, y, z'

loop_
  _atom_site_type_symbol
  _atom_site_label
  _atom_site_symmetry_multiplicity
  _atom_site_fract_x
  _atom_site_fract_y
  _atom_site_fract_z
  _atom_site_occupancy
  Tl  Tl1       1.0  0.2500000368689459  0.24999999532404507  0.25000000526510063  1.0000
  Tl  Tl2       1.0  0.7499999480763117  0.7500000146867449  0.7499999725099907  1.0000
  Ba  Ba1       1.0  1.2893397733614801e-08  1.0050106590707046e-08  0.9999998044820402  1.0000
  I   I1        1.0  0.2758341671677266  0.27583427145751677  0.7241658169324282  1.0000
  I   I2        1.0  0.7241657810257424  0.7241656782526064  0.27583417420082507  1.0000
  I   I3        1.0  0.7241657087587975  0.2758342825107216  0.2758342882516583  1.0000
  I   I4        1.0  0.27583416071582956  0.7241658911733194  0.7241658201616125  1.0000
  I   I5        1.0  0.2758343615295344  0.7241656471767363  0.2758343240570978  1.0000
  I   I6        1.0  0.7241658241643709  0.2758341991608052  0.7241657946088529  1.0000
