data_image0
_chemical_formula_structural       Tl2BI6
_chemical_formula_sum              "Tl2 B1 I6"
_cell_length_a       7.784636714765907
_cell_length_b       7.784636877360059
_cell_length_c       7.784636913870204
_cell_angle_alpha    59.99999928978293
_cell_angle_beta     59.999999978029756
_cell_angle_gamma    60.00000123354295

_space_group_name_H-M_alt    "P 1"
_space_group_IT_number       1

loop_
  _space_group_symop_operation_xyz
  'x, y, z'

loop_
  _atom_site_type_symbol
  _atom_site_label
  _atom_site_symmetry_multiplicity
  _atom_site_fract_x
  _atom_site_fract_y
  _atom_site_fract_z
  _atom_site_occupancy
  Tl  Tl1       1.0  0.25000005600189146  0.25000001811606215  0.24999995228178873  1.0000
  Tl  Tl2       1.0  0.7500000228369915  0.7500000181626401  0.7499999950519931  1.0000
  B   B1        1.0  0.9999999807170111  0.9999999999999991  7.900889186732157e-08  1.0000
  I   I1        1.0  0.22508087361439283  0.22508093254952394  0.7749189812661764  1.0000
  I   I2        1.0  0.7749190676368563  0.7749190848497641  0.22508080665356453  1.0000
  I   I3        1.0  0.7749190779679658  0.2250808957087748  0.22508093378407915  1.0000
  I   I4        1.0  0.22508083261195813  0.7749192003547365  0.7749191101779636  1.0000
  I   I5        1.0  0.22508090329474267  0.774918876710321  0.22508108526425225  1.0000
  I   I6        1.0  0.7749192108325542  0.22508094245511634  0.7749190660251216  1.0000
