data_image0
_chemical_formula_structural       Tl2BaBr6
_chemical_formula_sum              "Tl2 Ba1 Br6"
_cell_length_a       8.010493896280721
_cell_length_b       8.010493829137504
_cell_length_c       8.010493461257054
_cell_angle_alpha    59.99999860453875
_cell_angle_beta     59.99999938484613
_cell_angle_gamma    59.99999655897082

_space_group_name_H-M_alt    "P 1"
_space_group_IT_number       1

loop_
  _space_group_symop_operation_xyz
  'x, y, z'

loop_
  _atom_site_type_symbol
  _atom_site_label
  _atom_site_symmetry_multiplicity
  _atom_site_fract_x
  _atom_site_fract_y
  _atom_site_fract_z
  _atom_site_occupancy
  Tl  Tl1       1.0  0.2500000148266865  0.2499999696328585  0.2500000088637524  1.0000
  Tl  Tl2       1.0  0.7500000165221921  0.7500000143944426  0.7499999740902674  1.0000
  Ba  Ba1       1.0  6.205627928163604e-08  2.1404946801814115e-08  3.652355748629448e-07  1.0000
  Br  Br1       1.0  0.2759121148996495  0.2759120915591984  0.7240877581743528  1.0000
  Br  Br2       1.0  0.7240877982050444  0.724087819079683  0.27591209963580277  1.0000
  Br  Br3       1.0  0.72408784296349  0.27591209491126995  0.2759121100951753  1.0000
  Br  Br4       1.0  0.27591214104870554  0.7240879273391739  0.7240878100040372  1.0000
  Br  Br5       1.0  0.27591208709579174  0.7240878753772865  0.2759121110725396  1.0000
  Br  Br6       1.0  0.7240879312347145  0.27591218662522216  0.7240877582594958  1.0000
