data_image0
_chemical_formula_structural       Tl2BeBr6
_chemical_formula_sum              "Tl2 Be1 Br6"
_cell_length_a       7.347206535942773
_cell_length_b       7.347206547971516
_cell_length_c       7.347206842728558
_cell_angle_alpha    59.999998720256634
_cell_angle_beta     59.99999910061852
_cell_angle_gamma    59.99999981512845

_space_group_name_H-M_alt    "P 1"
_space_group_IT_number       1

loop_
  _space_group_symop_operation_xyz
  'x, y, z'

loop_
  _atom_site_type_symbol
  _atom_site_label
  _atom_site_symmetry_multiplicity
  _atom_site_fract_x
  _atom_site_fract_y
  _atom_site_fract_z
  _atom_site_occupancy
  Tl  Tl1       1.0  0.2500000045701723  0.25000000433444663  0.2499999990840496  1.0000
  Tl  Tl2       1.0  0.7499999967087174  0.7499999980007619  0.7500000050879688  1.0000
  Be  Be1       1.0  2.892376159531278e-08  2.1670390637042382e-08  2.097901330240067e-08  1.0000
  Br  Br1       1.0  0.2364328567473656  0.23643289389783104  0.7635671089189493  1.0000
  Br  Br2       1.0  0.7635671312912334  0.7635671434433927  0.23643280270651992  1.0000
  Br  Br3       1.0  0.763567097340283  0.236432894355232  0.2364328781508032  1.0000
  Br  Br4       1.0  0.23643285418611024  0.7635671346512258  0.7635671457282076  1.0000
  Br  Br5       1.0  0.23643290329700795  0.763567078651673  0.23643287857104445  1.0000
  Br  Br6       1.0  0.7635671054287275  0.23643283533502044  0.7635671687739315  1.0000
