data_image0
_chemical_formula_structural       Tl2BiCl6
_chemical_formula_sum              "Tl2 Bi1 Cl6"
_cell_length_a       7.427369740075691
_cell_length_b       7.427369825946776
_cell_length_c       7.427369572250714
_cell_angle_alpha    60.0000005896326
_cell_angle_beta     60.00000172390689
_cell_angle_gamma    59.99999817615451

_space_group_name_H-M_alt    "P 1"
_space_group_IT_number       1

loop_
  _space_group_symop_operation_xyz
  'x, y, z'

loop_
  _atom_site_type_symbol
  _atom_site_label
  _atom_site_symmetry_multiplicity
  _atom_site_fract_x
  _atom_site_fract_y
  _atom_site_fract_z
  _atom_site_occupancy
  Tl  Tl1       1.0  0.25000001054353366  0.25000000237553044  0.24999998815439803  1.0000
  Tl  Tl2       1.0  0.7499999829809155  0.7500000038286692  0.750000013325316  1.0000
  Bi  Bi1       1.0  6.75075708642806e-08  1.2861901414194397e-07  0.9999999557915744  1.0000
  Cl  Cl1       1.0  0.25273759983933725  0.2527375558685527  0.7472624442181142  1.0000
  Cl  Cl2       1.0  0.7472623507853026  0.7472623085249371  0.2527376751979214  1.0000
  Cl  Cl3       1.0  0.7472624766259388  0.25273752559663476  0.25273754599842213  1.0000
  Cl  Cl4       1.0  0.2527375536929634  0.7472624261918261  0.7472624319790149  1.0000
  Cl  Cl5       1.0  0.2527374775622885  0.747262523387152  0.25273750192165034  1.0000
  Cl  Cl6       1.0  0.7472624587685661  0.2527375471265581  0.7472624407988663  1.0000
