data_image0
_chemical_formula_structural       Tl2BiBr6
_chemical_formula_sum              "Tl2 Bi1 Br6"
_cell_length_a       7.735571639100628
_cell_length_b       7.7355718085540515
_cell_length_c       7.735571833172244
_cell_angle_alpha    59.999999051118934
_cell_angle_beta     60.000000996285735
_cell_angle_gamma    60.00000186775575

_space_group_name_H-M_alt    "P 1"
_space_group_IT_number       1

loop_
  _space_group_symop_operation_xyz
  'x, y, z'

loop_
  _atom_site_type_symbol
  _atom_site_label
  _atom_site_symmetry_multiplicity
  _atom_site_fract_x
  _atom_site_fract_y
  _atom_site_fract_z
  _atom_site_occupancy
  Tl  Tl1       1.0  0.25000002275895095  0.2499999969906447  0.24999998983754887  1.0000
  Tl  Tl2       1.0  0.7499999951338086  0.7499999909719329  0.7499999750586662  1.0000
  Bi  Bi1       1.0  0.9999997842962186  0.999999935086192  6.274503692130268e-08  1.0000
  Br  Br1       1.0  0.25960636998156467  0.25960637868919034  0.7403936530369415  1.0000
  Br  Br2       1.0  0.7403938035725839  0.7403937960984862  0.2596062117161395  1.0000
  Br  Br3       1.0  0.7403936017759486  0.2596063735338414  0.2596064180467373  1.0000
  Br  Br4       1.0  0.2596063937416191  0.7403935875132553  0.7403936102766915  1.0000
  Br  Br5       1.0  0.2596063616887282  0.7403936302607632  0.25960636770779655  1.0000
  Br  Br6       1.0  0.7403936572750774  0.2596063276198058  0.7403937112340525  1.0000
