data_image0
_chemical_formula_structural       Tl2BiI6
_chemical_formula_sum              "Tl2 Bi1 I6"
_cell_length_a       8.267050924543963
_cell_length_b       8.2670508532212
_cell_length_c       8.267050966225504
_cell_angle_alpha    60.0000004467797
_cell_angle_beta     59.99999981382011
_cell_angle_gamma    60.000002660291436

_space_group_name_H-M_alt    "P 1"
_space_group_IT_number       1

loop_
  _space_group_symop_operation_xyz
  'x, y, z'

loop_
  _atom_site_type_symbol
  _atom_site_label
  _atom_site_symmetry_multiplicity
  _atom_site_fract_x
  _atom_site_fract_y
  _atom_site_fract_z
  _atom_site_occupancy
  Tl  Tl1       1.0  0.24999998415002733  0.25000001508291364  0.2499999496551084  1.0000
  Tl  Tl2       1.0  0.7500000123699595  0.750000003767379  0.7500000260277297  1.0000
  Bi  Bi1       1.0  6.344684986149232e-08  0.999999968888976  0.999999822952469  1.0000
  I   I1        1.0  0.261746919511306  0.2617470010894962  0.7382530249613736  1.0000
  I   I2        1.0  0.7382530527144462  0.7382529733164757  0.2617469971869539  1.0000
  I   I3        1.0  0.738252960724422  0.26174699941281276  0.26174712897111413  1.0000
  I   I4        1.0  0.26174694348171357  0.738253099437255  0.7382529750405025  1.0000
  I   I5        1.0  0.26174699842451593  0.7382529893614797  0.26174704345737754  1.0000
  I   I6        1.0  0.7382530682307713  0.26174694060017545  0.7382530371622023  1.0000
