data_image0
_chemical_formula_structural       Tl2BaCl6
_chemical_formula_sum              "Tl2 Ba1 Cl6"
_cell_length_a       7.748339710407384
_cell_length_b       7.748340036759727
_cell_length_c       7.748340141403616
_cell_angle_alpha    60.00000123820357
_cell_angle_beta     59.999997194224704
_cell_angle_gamma    60.00000163705207

_space_group_name_H-M_alt    "P 1"
_space_group_IT_number       1

loop_
  _space_group_symop_operation_xyz
  'x, y, z'

loop_
  _atom_site_type_symbol
  _atom_site_label
  _atom_site_symmetry_multiplicity
  _atom_site_fract_x
  _atom_site_fract_y
  _atom_site_fract_z
  _atom_site_occupancy
  Tl  Tl1       1.0  0.2500000047986409  0.250000001313214  0.24999998659698147  1.0000
  Tl  Tl2       1.0  0.7500000169864742  0.7499999201649549  0.750000018451397  1.0000
  Ba  Ba1       1.0  2.1917344845837973e-08  0.9999999968386931  7.322031650490443e-08  1.0000
  Cl  Cl1       1.0  0.2721778818067576  0.2721777538718462  0.727822219595741  1.0000
  Cl  Cl2       1.0  0.7278221512676074  0.7278222008000684  0.27217782903168874  1.0000
  Cl  Cl3       1.0  0.7278220938425434  0.27217778279633775  0.27217791738989505  1.0000
  Cl  Cl4       1.0  0.2721777608970315  0.7278222240371733  0.7278222072301234  1.0000
  Cl  Cl5       1.0  0.2721778659836354  0.7278222484455005  0.27217765662243154  1.0000
  Cl  Cl6       1.0  0.7278222025830129  0.2721778769370939  0.7278220862794765  1.0000
