data_image0
_chemical_formula_structural       Tl2BiF6
_chemical_formula_sum              "Tl2 Bi1 F6"
_cell_length_a       6.486257309662665
_cell_length_b       6.4862571617393545
_cell_length_c       6.486257106350529
_cell_angle_alpha    60.000000515319776
_cell_angle_beta     60.0000007215882
_cell_angle_gamma    60.00000291801293

_space_group_name_H-M_alt    "P 1"
_space_group_IT_number       1

loop_
  _space_group_symop_operation_xyz
  'x, y, z'

loop_
  _atom_site_type_symbol
  _atom_site_label
  _atom_site_symmetry_multiplicity
  _atom_site_fract_x
  _atom_site_fract_y
  _atom_site_fract_z
  _atom_site_occupancy
  Tl  Tl1       1.0  0.2500000129832888  0.25000001278016004  0.24999998955638278  1.0000
  Tl  Tl2       1.0  0.7500000457838598  0.7499999911351033  0.7499998978932899  1.0000
  Bi  Bi1       1.0  0.9999999936164888  0.9999999924471396  2.0843676500959092e-08  1.0000
  F   F1        1.0  0.23733849072760288  0.23733847479829612  0.7626615037762989  1.0000
  F   F2        1.0  0.7626615002644338  0.7626615668812667  0.23733850659926303  1.0000
  F   F3        1.0  0.7626615105337649  0.23733844962434508  0.2373384698937062  1.0000
  F   F4        1.0  0.23733841593817417  0.7626616147137967  0.7626615660377791  1.0000
  F   F5        1.0  0.23733842451967554  0.7626615031848386  0.23733849600528148  1.0000
  F   F6        1.0  0.7626615903373426  0.23733837610822875  0.7626616082985763  1.0000
