data_image0
_chemical_formula_structural       Tl2BiBr6
_chemical_formula_sum              "Tl2 Bi1 Br6"
_cell_length_a       7.735269463504954
_cell_length_b       7.7352690869763725
_cell_length_c       7.735269098927546
_cell_angle_alpha    60.00000207063146
_cell_angle_beta     59.99999989734698
_cell_angle_gamma    59.999998365534395

_space_group_name_H-M_alt    "P 1"
_space_group_IT_number       1

loop_
  _space_group_symop_operation_xyz
  'x, y, z'

loop_
  _atom_site_type_symbol
  _atom_site_label
  _atom_site_symmetry_multiplicity
  _atom_site_fract_x
  _atom_site_fract_y
  _atom_site_fract_z
  _atom_site_occupancy
  Tl  Tl1       1.0  0.250000045487887  0.250000038880253  0.24999993806984688  1.0000
  Tl  Tl2       1.0  0.749999959429069  0.7499999804747751  0.7500000742322163  1.0000
  Bi  Bi1       1.0  2.709914424574597e-07  0.9999999841667364  0.9999997677057393  1.0000
  Br  Br1       1.0  0.2596449687871637  0.25964495379514796  0.7403550307006306  1.0000
  Br  Br2       1.0  0.7403549315322279  0.7403549404771688  0.25964505765817447  1.0000
  Br  Br3       1.0  0.7403549645969443  0.2596450156027868  0.25964501321330835  1.0000
  Br  Br4       1.0  0.25964491708207504  0.740355073418567  0.7403550982702345  1.0000
  Br  Br5       1.0  0.259644971458387  0.7403550240045292  0.25964496373751134  1.0000
  Br  Br6       1.0  0.7403549754215065  0.25964498585054635  0.7403550500135636  1.0000
