data_image0
_chemical_formula_structural       Tl2BeI6
_chemical_formula_sum              "Tl2 Be1 I6"
_cell_length_a       7.802765512497198
_cell_length_b       7.802765605143111
_cell_length_c       7.802765555864314
_cell_angle_alpha    60.00000021651329
_cell_angle_beta     60.00000025589886
_cell_angle_gamma    60.00000029958243

_space_group_name_H-M_alt    "P 1"
_space_group_IT_number       1

loop_
  _space_group_symop_operation_xyz
  'x, y, z'

loop_
  _atom_site_type_symbol
  _atom_site_label
  _atom_site_symmetry_multiplicity
  _atom_site_fract_x
  _atom_site_fract_y
  _atom_site_fract_z
  _atom_site_occupancy
  Tl  Tl1       1.0  0.24999999965819505  0.2499999982815585  0.24999999957715446  1.0000
  Tl  Tl2       1.0  0.7499999958353264  0.7500000042624507  0.7499999994369957  1.0000
  Be  Be1       1.0  3.3931623702908788e-09  3.139258384098797e-09  0.9999999954521928  1.0000
  I   I1        1.0  0.23621296562618418  0.2362129632900078  0.7637870419969188  1.0000
  I   I2        1.0  0.7637870290004551  0.7637870329754847  0.23621297212430267  1.0000
  I   I3        1.0  0.7637870377851498  0.23621295871140605  0.2362129699338731  1.0000
  I   I4        1.0  0.23621297320972467  0.7637870328451989  0.763787022978512  1.0000
  I   I5        1.0  0.23621296615525042  0.7637870336764456  0.23621297423281468  1.0000
  I   I6        1.0  0.7637870277686417  0.23621297357645124  0.7637870232117061  1.0000
