data_image0
_chemical_formula_structural       Tl2BBr6
_chemical_formula_sum              "Tl2 B1 Br6"
_cell_length_a       7.489775653643846
_cell_length_b       7.489775518839
_cell_length_c       7.489775697557035
_cell_angle_alpha    59.99999628924439
_cell_angle_beta     59.999997800186485
_cell_angle_gamma    59.99999732931814

_space_group_name_H-M_alt    "P 1"
_space_group_IT_number       1

loop_
  _space_group_symop_operation_xyz
  'x, y, z'

loop_
  _atom_site_type_symbol
  _atom_site_label
  _atom_site_symmetry_multiplicity
  _atom_site_fract_x
  _atom_site_fract_y
  _atom_site_fract_z
  _atom_site_occupancy
  Tl  Tl1       1.0  0.250000026752231  0.24999996368519212  0.2500000183324958  1.0000
  Tl  Tl2       1.0  0.749999991676875  0.7500000087915959  0.7499999830077864  1.0000
  B   B1        1.0  0.9999999138035629  7.358500918580218e-08  9.042038214038243e-08  1.0000
  Br  Br1       1.0  0.21265217440855758  0.21265211402434506  0.7873477480544814  1.0000
  Br  Br2       1.0  0.7873478209564398  0.7873479091443397  0.21265223012583157  1.0000
  Br  Br3       1.0  0.7873478117170489  0.21265209912123353  0.21265218677793013  1.0000
  Br  Br4       1.0  0.21265220314500663  0.7873479256826742  0.7873477674847075  1.0000
  Br  Br5       1.0  0.2126521396692524  0.7873477948246096  0.21265225508831118  1.0000
  Br  Br6       1.0  0.7873479216015803  0.21265211387850133  0.7873477820858628  1.0000
