data_image0
_chemical_formula_structural       Tl2BiCl6
_chemical_formula_sum              "Tl2 Bi1 Cl6"
_cell_length_a       7.4260094064176245
_cell_length_b       7.426009270483762
_cell_length_c       7.4260094547730295
_cell_angle_alpha    59.99999867448129
_cell_angle_beta     59.99999887331299
_cell_angle_gamma    60.00000010977844

_space_group_name_H-M_alt    "P 1"
_space_group_IT_number       1

loop_
  _space_group_symop_operation_xyz
  'x, y, z'

loop_
  _atom_site_type_symbol
  _atom_site_label
  _atom_site_symmetry_multiplicity
  _atom_site_fract_x
  _atom_site_fract_y
  _atom_site_fract_z
  _atom_site_occupancy
  Tl  Tl1       1.0  0.24999997178744776  0.24999999618039298  0.25000001099967006  1.0000
  Tl  Tl2       1.0  0.7500000170613934  0.7500000099816108  0.7500000064413436  1.0000
  Bi  Bi1       1.0  3.117695674818745e-08  2.308969465140882e-08  1.326522207727552e-08  1.0000
  Cl  Cl1       1.0  0.2527520734171733  0.2527521085211852  0.7472478949105713  1.0000
  Cl  Cl2       1.0  0.7472479178974722  0.747247904237874  0.252752111265921  1.0000
  Cl  Cl3       1.0  0.7472478580308534  0.25275209142561705  0.2527521350920617  1.0000
  Cl  Cl4       1.0  0.2527521650590534  0.7472478586614153  0.7472478488275018  1.0000
  Cl  Cl5       1.0  0.2527521139851309  0.7472478482423504  0.2527521504257174  1.0000
  Cl  Cl6       1.0  0.7472478593143023  0.2527521579196533  0.7472478114989417  1.0000
