data_image0
_chemical_formula_structural       Tl2BCl6
_chemical_formula_sum              "Tl2 B1 Cl6"
_cell_length_a       7.095579912107515
_cell_length_b       7.09558089281346
_cell_length_c       7.095580373554067
_cell_angle_alpha    59.999998664944215
_cell_angle_beta     59.999993343286675
_cell_angle_gamma    59.99999882768797

_space_group_name_H-M_alt    "P 1"
_space_group_IT_number       1

loop_
  _space_group_symop_operation_xyz
  'x, y, z'

loop_
  _atom_site_type_symbol
  _atom_site_label
  _atom_site_symmetry_multiplicity
  _atom_site_fract_x
  _atom_site_fract_y
  _atom_site_fract_z
  _atom_site_occupancy
  Tl  Tl1       1.0  0.2499999599702715  0.2500000496520647  0.2500000039929518  1.0000
  Tl  Tl2       1.0  0.7500000264571733  0.7500000022404892  0.7499999852862959  1.0000
  B   B1        1.0  0.999999143352819  1.4844179207329393e-07  1.1874494569069042e-07  1.0000
  Cl  Cl1       1.0  0.20625801340440336  0.2062581456292928  0.7937421297784266  1.0000
  Cl  Cl2       1.0  0.7937426681307429  0.7937420081011988  0.20625775557752404  1.0000
  Cl  Cl3       1.0  0.7937423029339148  0.206257991769582  0.20625779813850775  1.0000
  Cl  Cl4       1.0  0.20625784912534018  0.7937418512688496  0.7937422634877039  1.0000
  Cl  Cl5       1.0  0.2062578908797847  0.7937418938975218  0.2062580056939107  1.0000
  Cl  Cl6       1.0  0.7937422017402397  0.2062579370584466  0.793741878884624  1.0000
