data_image0
_chemical_formula_structural       Tl2CBr6
_chemical_formula_sum              "Tl2 C1 Br6"
_cell_length_a       7.646700215211141
_cell_length_b       7.646700846384094
_cell_length_c       7.646700343561408
_cell_angle_alpha    60.000006763747045
_cell_angle_beta     59.999995275363645
_cell_angle_gamma    60.00001039925136

_space_group_name_H-M_alt    "P 1"
_space_group_IT_number       1

loop_
  _space_group_symop_operation_xyz
  'x, y, z'

loop_
  _atom_site_type_symbol
  _atom_site_label
  _atom_site_symmetry_multiplicity
  _atom_site_fract_x
  _atom_site_fract_y
  _atom_site_fract_z
  _atom_site_occupancy
  Tl  Tl1       1.0  0.2499999930080243  0.24999999813296067  0.25000003114361347  1.0000
  Tl  Tl2       1.0  0.749999989670415  0.7500000168221745  0.7499999657369666  1.0000
  C   C1        1.0  3.9408399997367435e-08  0.9999994378158727  5.137842901496728e-07  1.0000
  Br  Br1       1.0  0.2188851416569  0.2188850543905064  0.7811147818905638  1.0000
  Br  Br2       1.0  0.7811153513576136  0.7811152280425822  0.21888465738277954  1.0000
  Br  Br3       1.0  0.7811146588438359  0.21888513404192192  0.2188850804559304  1.0000
  Br  Br4       1.0  0.21888494256304283  0.7811150779178804  0.7811149196308695  1.0000
  Br  Br5       1.0  0.21888515219473012  0.7811148732415134  0.21888517140149022  1.0000
  Br  Br6       1.0  0.7811147150933709  0.21888514812026677  0.7811148289685493  1.0000
