data_image0
_chemical_formula_structural       Tl2CuBr6
_chemical_formula_sum              "Tl2 Cu1 Br6"
_cell_length_a       7.345978966022415
_cell_length_b       7.345978877962063
_cell_length_c       7.3459791220697435
_cell_angle_alpha    60.00000067068977
_cell_angle_beta     59.999998929799425
_cell_angle_gamma    60.000000670525985

_space_group_name_H-M_alt    "P 1"
_space_group_IT_number       1

loop_
  _space_group_symop_operation_xyz
  'x, y, z'

loop_
  _atom_site_type_symbol
  _atom_site_label
  _atom_site_symmetry_multiplicity
  _atom_site_fract_x
  _atom_site_fract_y
  _atom_site_fract_z
  _atom_site_occupancy
  Tl  Tl1       1.0  0.25000001134249317  0.24999999697782332  0.2500000051551279  1.0000
  Tl  Tl2       1.0  0.7500000186737115  0.7499999992696276  0.7499999794968101  1.0000
  Cu  Cu1       1.0  7.873848217858013e-08  0.9999999099694928  1.0365881343429731e-07  1.0000
  Br  Br1       1.0  0.24093272060986126  0.24093270487078755  0.7590672636670486  1.0000
  Br  Br2       1.0  0.7590672820332703  0.7590672980455896  0.24093272725309628  1.0000
  Br  Br3       1.0  0.759067131364888  0.24093278852282835  0.2409328643593421  1.0000
  Br  Br4       1.0  0.24093270037087824  0.7590672744138883  0.7590672214816957  1.0000
  Br  Br5       1.0  0.2409327797152645  0.7590672166158124  0.24093274330106954  1.0000
  Br  Br6       1.0  0.7590672614784508  0.24093279797118416  0.7590670959086042  1.0000
