data_image0
_chemical_formula_structural       Tl2CCl6
_chemical_formula_sum              "Tl2 C1 Cl6"
_cell_length_a       7.549423829043326
_cell_length_b       7.5494234252351315
_cell_length_c       7.549422494199289
_cell_angle_alpha    59.99999874326885
_cell_angle_beta     60.00000648073944
_cell_angle_gamma    60.000001264840726

_space_group_name_H-M_alt    "P 1"
_space_group_IT_number       1

loop_
  _space_group_symop_operation_xyz
  'x, y, z'

loop_
  _atom_site_type_symbol
  _atom_site_label
  _atom_site_symmetry_multiplicity
  _atom_site_fract_x
  _atom_site_fract_y
  _atom_site_fract_z
  _atom_site_occupancy
  Tl  Tl1       1.0  0.24999963379748236  0.2500001471652401  0.25000013280471545  1.0000
  Tl  Tl2       1.0  0.7499999471161386  0.7499998509775998  0.7500002781043646  1.0000
  C   C1        1.0  0.9999999485370781  0.9999999983776163  1.3008123079996242e-06  1.0000
  Cl  Cl1       1.0  0.20240608057752865  0.20240605014613436  0.7975937321686156  1.0000
  Cl  Cl2       1.0  0.7975942047217983  0.7975937987449285  0.2024056752901712  1.0000
  Cl  Cl3       1.0  0.7975943332140082  0.20240583047977112  0.2024058586339529  1.0000
  Cl  Cl4       1.0  0.2024063997502624  0.797593455472303  0.7975937230270893  1.0000
  Cl  Cl5       1.0  0.20240576183429845  0.7975944906143674  0.20240560196661242  1.0000
  Cl  Cl6       1.0  0.7975936702540724  0.20240630732367443  0.7975938463226311  1.0000
