data_image0
_chemical_formula_structural       Tl2CoBr6
_chemical_formula_sum              "Tl2 Co1 Br6"
_cell_length_a       7.272857085556249
_cell_length_b       7.2728571091512855
_cell_length_c       7.272857097173232
_cell_angle_alpha    59.999999840722424
_cell_angle_beta     59.99999998849627
_cell_angle_gamma    60.000000117290305

_space_group_name_H-M_alt    "P 1"
_space_group_IT_number       1

loop_
  _space_group_symop_operation_xyz
  'x, y, z'

loop_
  _atom_site_type_symbol
  _atom_site_label
  _atom_site_symmetry_multiplicity
  _atom_site_fract_x
  _atom_site_fract_y
  _atom_site_fract_z
  _atom_site_occupancy
  Tl  Tl1       1.0  0.2499999996005654  0.24999999919637036  0.2500000004700968  1.0000
  Tl  Tl2       1.0  0.7500000030997288  0.7499999942211226  0.7500000023202437  1.0000
  Co  Co1       1.0  0.9999999812201849  1.3471953029146592e-08  1.3653734651058024e-08  1.0000
  Br  Br1       1.0  0.24212472939226048  0.24212476226857588  0.7578752556177208  1.0000
  Br  Br2       1.0  0.7578752555545721  0.7578752463048644  0.2421247594711804  1.0000
  Br  Br3       1.0  0.7578752687431191  0.24212474862665667  0.2421247377197836  1.0000
  Br  Br4       1.0  0.24212477095547394  0.7578752195309246  0.7578752413266825  1.0000
  Br  Br5       1.0  0.24212473740432605  0.7578752528571471  0.24212475165461383  1.0000
  Br  Br6       1.0  0.7578752526742742  0.2421247641362639  0.75787524703359  1.0000
