data_image0
_chemical_formula_structural       Tl2CF6
_chemical_formula_sum              "Tl2 C1 F6"
_cell_length_a       5.890066415870084
_cell_length_b       5.890066564333703
_cell_length_c       5.890066140125109
_cell_angle_alpha    60.00000011791778
_cell_angle_beta     60.00000081472114
_cell_angle_gamma    60.000000210979216

_space_group_name_H-M_alt    "P 1"
_space_group_IT_number       1

loop_
  _space_group_symop_operation_xyz
  'x, y, z'

loop_
  _atom_site_type_symbol
  _atom_site_label
  _atom_site_symmetry_multiplicity
  _atom_site_fract_x
  _atom_site_fract_y
  _atom_site_fract_z
  _atom_site_occupancy
  Tl  Tl1       1.0  0.2500000146867829  0.2500000715986731  0.24999991892378362  1.0000
  Tl  Tl2       1.0  0.750000038994621  0.7500000006240376  0.7499999597677685  1.0000
  C   C1        1.0  0.999999887304692  4.9904155491211977e-08  0.9999998378493623  1.0000
  F   F1        1.0  0.19261929971124023  0.19261935736005137  0.8073807095225778  1.0000
  F   F2        1.0  0.8073806343064175  0.807380650403129  0.1926193987502927  1.0000
  F   F3        1.0  0.8073806710895467  0.19261931793999595  0.19261933558326055  1.0000
  F   F4        1.0  0.19261927686848784  0.8073807126959207  0.8073807220253505  1.0000
  F   F5        1.0  0.1926193261307372  0.8073806373610303  0.19261931747204064  1.0000
  F   F6        1.0  0.8073808832598004  0.19261918534092287  0.8073807931826718  1.0000
