data_image0
_chemical_formula_structural       Tl2CoF6
_chemical_formula_sum              "Tl2 Co1 F6"
_cell_length_a       5.872005731111056
_cell_length_b       5.872005806323073
_cell_length_c       5.8720057588828585
_cell_angle_alpha    60.00000081617714
_cell_angle_beta     59.999999516891535
_cell_angle_gamma    59.9999987964285

_space_group_name_H-M_alt    "P 1"
_space_group_IT_number       1

loop_
  _space_group_symop_operation_xyz
  'x, y, z'

loop_
  _atom_site_type_symbol
  _atom_site_label
  _atom_site_symmetry_multiplicity
  _atom_site_fract_x
  _atom_site_fract_y
  _atom_site_fract_z
  _atom_site_occupancy
  Tl  Tl1       1.0  0.25000001568032687  0.24999995460110488  0.24999996258149304  1.0000
  Tl  Tl2       1.0  0.749999988521108  0.7500000452622712  0.7499999710295645  1.0000
  Co  Co1       1.0  6.996071459591364e-08  0.9999998373126618  2.4901978792951824e-07  1.0000
  F   F1        1.0  0.22437786895371184  0.22437779389540957  0.775622092507794  1.0000
  F   F2        1.0  0.7756221323269911  0.7756222560256091  0.22437781753480845  1.0000
  F   F3        1.0  0.7756223274865552  0.22437764746098318  0.2243778144021356  1.0000
  F   F4        1.0  0.2243778017157282  0.7756222251725492  0.7756221697102914  1.0000
  F   F5        1.0  0.22437763604126462  0.7756223795777428  0.22437774662423468  1.0000
  F   F6        1.0  0.7756221923280787  0.22437783511635281  0.7756222032504181  1.0000
