data_image0
_chemical_formula_structural       Tl2CrCl6
_chemical_formula_sum              "Tl2 Cr1 Cl6"
_cell_length_a       7.102048493934492
_cell_length_b       7.102048519931919
_cell_length_c       7.102048140080961
_cell_angle_alpha    60.00000302010843
_cell_angle_beta     60.00000193720667
_cell_angle_gamma    60.0000018382045

_space_group_name_H-M_alt    "P 1"
_space_group_IT_number       1

loop_
  _space_group_symop_operation_xyz
  'x, y, z'

loop_
  _atom_site_type_symbol
  _atom_site_label
  _atom_site_symmetry_multiplicity
  _atom_site_fract_x
  _atom_site_fract_y
  _atom_site_fract_z
  _atom_site_occupancy
  Tl  Tl1       1.0  0.24999999962066558  0.2500000270841289  0.24999998814327984  1.0000
  Tl  Tl2       1.0  0.7500000123142199  0.7499999726091912  0.7500000007609682  1.0000
  Cr  Cr1       1.0  9.904558104775872e-08  6.38063207552537e-08  0.9999999016775156  1.0000
  Cl  Cl1       1.0  0.232705915380726  0.232705692465343  0.7672941931415436  1.0000
  Cl  Cl2       1.0  0.7672940637268707  0.767294181339831  0.23270593425829064  1.0000
  Cl  Cl3       1.0  0.7672940521489241  0.232705895571586  0.23270580268318408  1.0000
  Cl  Cl4       1.0  0.23270578898794317  0.767294079978801  0.7672942006169122  1.0000
  Cl  Cl5       1.0  0.2327059847997965  0.7672941902479243  0.23270573092264393  1.0000
  Cl  Cl6       1.0  0.7672940909863694  0.23270587152722208  0.7672942400724766  1.0000
