data_image0
_chemical_formula_structural       Tl2CaF6
_chemical_formula_sum              "Tl2 Ca1 F6"
_cell_length_a       6.378104398024254
_cell_length_b       6.378104241377212
_cell_length_c       6.37810433753221
_cell_angle_alpha    59.99999928100623
_cell_angle_beta     59.99999637978684
_cell_angle_gamma    60.00000236300391

_space_group_name_H-M_alt    "P 1"
_space_group_IT_number       1

loop_
  _space_group_symop_operation_xyz
  'x, y, z'

loop_
  _atom_site_type_symbol
  _atom_site_label
  _atom_site_symmetry_multiplicity
  _atom_site_fract_x
  _atom_site_fract_y
  _atom_site_fract_z
  _atom_site_occupancy
  Tl  Tl1       1.0  0.25000060501435156  0.2499998273953192  0.24999965541416216  1.0000
  Tl  Tl2       1.0  0.7500008343825194  0.7499995781975934  0.7500001046985689  1.0000
  Ca  Ca1       1.0  1.1436988769170163e-07  0.9999998252587676  1.1371301564430674e-08  1.0000
  F   F1        1.0  0.2461917948952268  0.24619245421287  0.7538078978929265  1.0000
  F   F2        1.0  0.7538077957584616  0.7538080439927485  0.24619180598677598  1.0000
  F   F3        1.0  0.7538074965779554  0.24619237077752676  0.2461921702108385  1.0000
  F   F4        1.0  0.24619199981201775  0.7538077856265493  0.7538079163272132  1.0000
  F   F5        1.0  0.24619164426882126  0.7538080001751182  0.24619254206800154  1.0000
  F   F6        1.0  0.7538076931342188  0.24619213894685466  0.7538079399059114  1.0000
