data_image0
_chemical_formula_structural       Tl2CI6
_chemical_formula_sum              "Tl2 C1 I6"
_cell_length_a       7.675379263821076
_cell_length_b       7.675380334574742
_cell_length_c       7.675379482880933
_cell_angle_alpha    60.00000596681143
_cell_angle_beta     60.000007102777765
_cell_angle_gamma    59.999996779968626

_space_group_name_H-M_alt    "P 1"
_space_group_IT_number       1

loop_
  _space_group_symop_operation_xyz
  'x, y, z'

loop_
  _atom_site_type_symbol
  _atom_site_label
  _atom_site_symmetry_multiplicity
  _atom_site_fract_x
  _atom_site_fract_y
  _atom_site_fract_z
  _atom_site_occupancy
  Tl  Tl1       1.0  0.2499999548719189  0.2499999668239782  0.2500000389632398  1.0000
  Tl  Tl2       1.0  0.7499999672188143  0.7499999898299837  0.7500000508751189  1.0000
  C   C1        1.0  0.9999998839797288  0.999999851601805  1.2699775474872958e-07  1.0000
  I   I1        1.0  0.2451085540043827  0.24510865173927485  0.754891439363957  1.0000
  I   I2        1.0  0.7548916219814962  0.7548914549085467  0.24510841986683915  1.0000
  I   I3        1.0  0.7548915174355588  0.24510861597777062  0.24510882045198923  1.0000
  I   I4        1.0  0.24510841864856717  0.7548914747132804  0.7548912240342095  1.0000
  I   I5        1.0  0.24510850356313127  0.7548914705621902  0.2451089053003771  1.0000
  I   I6        1.0  0.7548914576112316  0.24510854034487606  0.754891028428775  1.0000
