data_image0
_chemical_formula_structural       Tl2CaBr6
_chemical_formula_sum              "Tl2 Ca1 Br6"
_cell_length_a       7.738180286870514
_cell_length_b       7.738180261644015
_cell_length_c       7.738180021941564
_cell_angle_alpha    59.99999904873619
_cell_angle_beta     60.00000067302796
_cell_angle_gamma    59.99999912449027

_space_group_name_H-M_alt    "P 1"
_space_group_IT_number       1

loop_
  _space_group_symop_operation_xyz
  'x, y, z'

loop_
  _atom_site_type_symbol
  _atom_site_label
  _atom_site_symmetry_multiplicity
  _atom_site_fract_x
  _atom_site_fract_y
  _atom_site_fract_z
  _atom_site_occupancy
  Tl  Tl1       1.0  0.25000002658322135  0.24999998998293815  0.24999999991288563  1.0000
  Tl  Tl2       1.0  0.749999987819554  0.7500000174307114  0.7499999689787281  1.0000
  Ca  Ca1       1.0  1.6866921031509628e-08  0.9999999762590541  0.9999999065149977  1.0000
  Br  Br1       1.0  0.26041411259457226  0.26041412042598217  0.7395858913685517  1.0000
  Br  Br2       1.0  0.7395858765155868  0.739585909145885  0.2604141075207188  1.0000
  Br  Br3       1.0  0.7395857977261151  0.2604141497945371  0.26041413050554035  1.0000
  Br  Br4       1.0  0.26041411543120724  0.7395859240937654  0.7395859255553237  1.0000
  Br  Br5       1.0  0.26041413385425827  0.7395859023405891  0.2604140289851142  1.0000
  Br  Br6       1.0  0.7395859380982951  0.26041400852653807  0.7395860356501915  1.0000
