data_image0
_chemical_formula_structural       Tl2CrBr6
_chemical_formula_sum              "Tl2 Cr1 Br6"
_cell_length_a       7.34068053562451
_cell_length_b       7.340680415386
_cell_length_c       7.34068049166483
_cell_angle_alpha    59.999999427548865
_cell_angle_beta     59.99999796649271
_cell_angle_gamma    60.0000005708834

_space_group_name_H-M_alt    "P 1"
_space_group_IT_number       1

loop_
  _space_group_symop_operation_xyz
  'x, y, z'

loop_
  _atom_site_type_symbol
  _atom_site_label
  _atom_site_symmetry_multiplicity
  _atom_site_fract_x
  _atom_site_fract_y
  _atom_site_fract_z
  _atom_site_occupancy
  Tl  Tl1       1.0  0.24999998017207906  0.2500000046475321  0.25000000078493245  1.0000
  Tl  Tl2       1.0  0.7500000133520541  0.7499999889160713  0.7500000002464945  1.0000
  Cr  Cr1       1.0  0.9999998786841469  1.7518568170551553e-07  2.0744590784667976e-08  1.0000
  Br  Br1       1.0  0.23862270828817936  0.2386227450158119  0.7613772686842993  1.0000
  Br  Br2       1.0  0.7613772132261681  0.761377285253362  0.23862275136150793  1.0000
  Br  Br3       1.0  0.7613772957935855  0.2386227304929541  0.23862270158569138  1.0000
  Br  Br4       1.0  0.23862283317080282  0.7613771446117599  0.7613771302070109  1.0000
  Br  Br5       1.0  0.23862288112252808  0.7613771115270757  0.23862290613686507  1.0000
  Br  Br6       1.0  0.7613772143150568  0.238622816967562  0.7613771936276686  1.0000
