data_image0
_chemical_formula_structural       Tl2CuI6
_chemical_formula_sum              "Tl2 Cu1 I6"
_cell_length_a       7.695843721164554
_cell_length_b       7.695843629998173
_cell_length_c       7.6958430636909005
_cell_angle_alpha    60.000002472949696
_cell_angle_beta     60.00000263248404
_cell_angle_gamma    59.99999841804453

_space_group_name_H-M_alt    "P 1"
_space_group_IT_number       1

loop_
  _space_group_symop_operation_xyz
  'x, y, z'

loop_
  _atom_site_type_symbol
  _atom_site_label
  _atom_site_symmetry_multiplicity
  _atom_site_fract_x
  _atom_site_fract_y
  _atom_site_fract_z
  _atom_site_occupancy
  Tl  Tl1       1.0  0.25000006062616326  0.2500000346963372  0.24999993231533468  1.0000
  Tl  Tl2       1.0  0.7500000198954936  0.7499999958713165  0.7499999658308225  1.0000
  Cu  Cu1       1.0  0.9999999712189539  1.4322931941446634e-08  0.99999997604339  1.0000
  I   I1        1.0  0.2518161102789866  0.251816047594707  0.7481839475763152  1.0000
  I   I2        1.0  0.7481838752923037  0.7481839527356515  0.25181607813381296  1.0000
  I   I3        1.0  0.7481839536599106  0.2518160682731745  0.2518161103159827  1.0000
  I   I4        1.0  0.2518160205451239  0.7481838986370121  0.7481839195957201  1.0000
  I   I5        1.0  0.251816052669878  0.7481839267017658  0.2518162013366032  1.0000
  I   I6        1.0  0.7481839309615281  0.25181607044571924  0.7481838711145988  1.0000
