data_image0
_chemical_formula_structural       Tl2CrI6
_chemical_formula_sum              "Tl2 Cr1 I6"
_cell_length_a       7.901953906301352
_cell_length_b       7.901954556584435
_cell_length_c       7.90195388860516
_cell_angle_alpha    59.99999901018897
_cell_angle_beta     60.00000156548157
_cell_angle_gamma    59.99999599118017

_space_group_name_H-M_alt    "P 1"
_space_group_IT_number       1

loop_
  _space_group_symop_operation_xyz
  'x, y, z'

loop_
  _atom_site_type_symbol
  _atom_site_label
  _atom_site_symmetry_multiplicity
  _atom_site_fract_x
  _atom_site_fract_y
  _atom_site_fract_z
  _atom_site_occupancy
  Tl  Tl1       1.0  0.24999999299916675  0.24999999006713064  0.25000001750731476  1.0000
  Tl  Tl2       1.0  0.7500000033074887  0.7499999981000708  0.749999972000689  1.0000
  Cr  Cr1       1.0  0.999999989783601  1.270939751212384e-07  0.9999999567473257  1.0000
  I   I1        1.0  0.24019621513463463  0.2401962749918648  0.7598037623372298  1.0000
  I   I2        1.0  0.7598037251569754  0.7598036620277618  0.24019633263798634  1.0000
  I   I3        1.0  0.7598037369490486  0.24019625425430208  0.2401962186279025  1.0000
  I   I4        1.0  0.24019633372105884  0.7598037168637037  0.7598037308333866  1.0000
  I   I5        1.0  0.24019625009053114  0.7598037777422916  0.24019617452652414  1.0000
  I   I6        1.0  0.7598037509393383  0.24019621817454048  0.7598038416483117  1.0000
