data_image0
_chemical_formula_structural       Tl2CdF6
_chemical_formula_sum              "Tl2 Cd1 F6"
_cell_length_a       6.26532994795507
_cell_length_b       6.265328966800904
_cell_length_c       6.26532999773991
_cell_angle_alpha    60.00000213794155
_cell_angle_beta     60.00000031231987
_cell_angle_gamma    60.00000091191617

_space_group_name_H-M_alt    "P 1"
_space_group_IT_number       1

loop_
  _space_group_symop_operation_xyz
  'x, y, z'

loop_
  _atom_site_type_symbol
  _atom_site_label
  _atom_site_symmetry_multiplicity
  _atom_site_fract_x
  _atom_site_fract_y
  _atom_site_fract_z
  _atom_site_occupancy
  Tl  Tl1       1.0  0.2499998723409738  0.24999992217414638  0.2500001135448  1.0000
  Tl  Tl2       1.0  0.7500000486938263  0.7499998095279877  0.7500000426449429  1.0000
  Cd  Cd1       1.0  1.993161142663758e-09  0.9999999276724987  4.7935846957137136e-08  1.0000
  F   F1        1.0  0.25053056118843564  0.25053045893592185  0.7494694243411649  1.0000
  F   F2        1.0  0.7494693634172716  0.7494694721555473  0.25053067346276675  1.0000
  F   F3        1.0  0.7494697086920525  0.250530431957857  0.25053037931455147  1.0000
  F   F4        1.0  0.2505303112257579  0.7494696555173985  0.749469530394125  1.0000
  F   F5        1.0  0.25053048521309174  0.749469605903179  0.25053040336538585  1.0000
  F   F6        1.0  0.7494696298507728  0.25053054998998897  0.7494694485025886  1.0000
