data_image0
_chemical_formula_structural       Tl2CdBr6
_chemical_formula_sum              "Tl2 Cd1 Br6"
_cell_length_a       7.561391236657744
_cell_length_b       7.56139084850708
_cell_length_c       7.5613910517186795
_cell_angle_alpha    59.999999001187945
_cell_angle_beta     60.000001254449465
_cell_angle_gamma    59.999997990882925

_space_group_name_H-M_alt    "P 1"
_space_group_IT_number       1

loop_
  _space_group_symop_operation_xyz
  'x, y, z'

loop_
  _atom_site_type_symbol
  _atom_site_label
  _atom_site_symmetry_multiplicity
  _atom_site_fract_x
  _atom_site_fract_y
  _atom_site_fract_z
  _atom_site_occupancy
  Tl  Tl1       1.0  0.24999997327871604  0.24999999302221057  0.24999999951605992  1.0000
  Tl  Tl2       1.0  0.7500000134206695  0.7500000098415948  0.749999998526313  1.0000
  Cd  Cd1       1.0  2.159115154959969e-07  0.9999997554200215  0.9999998807609265  1.0000
  Br  Br1       1.0  0.259833967590896  0.25983415548979544  0.740165933601295  1.0000
  Br  Br2       1.0  0.7401658728932615  0.7401658004016979  0.2598341530997995  1.0000
  Br  Br3       1.0  0.7401659001298972  0.259834187091203  0.2598341149338276  1.0000
  Br  Br4       1.0  0.2598340601905569  0.7401659178159038  0.7401659325618867  1.0000
  Br  Br5       1.0  0.2598340900825265  0.7401659224616154  0.25983418728719687  1.0000
  Br  Br6       1.0  0.7401659073805709  0.25983426343223814  0.7401658077563626  1.0000
