data_image0
_chemical_formula_structural       Tl2CuF6
_chemical_formula_sum              "Tl2 Cu1 F6"
_cell_length_a       5.93056622463057
_cell_length_b       5.930565670439696
_cell_length_c       5.930565906129256
_cell_angle_alpha    59.999999386450106
_cell_angle_beta     60.000000195052486
_cell_angle_gamma    59.99999911578102

_space_group_name_H-M_alt    "P 1"
_space_group_IT_number       1

loop_
  _space_group_symop_operation_xyz
  'x, y, z'

loop_
  _atom_site_type_symbol
  _atom_site_label
  _atom_site_symmetry_multiplicity
  _atom_site_fract_x
  _atom_site_fract_y
  _atom_site_fract_z
  _atom_site_occupancy
  Tl  Tl1       1.0  0.2500000066344955  0.24999998284055636  0.2500000334335401  1.0000
  Tl  Tl2       1.0  0.7500000474184229  0.7499999010234467  0.7500000563345116  1.0000
  Cu  Cu1       1.0  0.9999999535276981  0.9999999525017784  1.0937391193969473e-07  1.0000
  F   F1        1.0  0.2252495493001426  0.2252496676536923  0.7747504041664619  1.0000
  F   F2        1.0  0.7747503019238551  0.7747504041380554  0.22524960874319463  1.0000
  F   F3        1.0  0.7747504491020394  0.2252496097674282  0.22524952351537236  1.0000
  F   F4        1.0  0.22524967325217485  0.7747504021352594  0.7747503449915688  1.0000
  F   F5        1.0  0.22524962475151142  0.7747504337217893  0.22524959389515595  1.0000
  F   F6        1.0  0.7747504217662756  0.22524960709285952  0.7747503604626692  1.0000
