data_image0
_chemical_formula_structural       Tl2CuCl6
_chemical_formula_sum              "Tl2 Cu1 Cl6"
_cell_length_a       7.17409208470121
_cell_length_b       7.174091034915223
_cell_length_c       7.174091109778493
_cell_angle_alpha    60.000006242983936
_cell_angle_beta     60.00000273528707
_cell_angle_gamma    59.999998020504805

_space_group_name_H-M_alt    "P 1"
_space_group_IT_number       1

loop_
  _space_group_symop_operation_xyz
  'x, y, z'

loop_
  _atom_site_type_symbol
  _atom_site_label
  _atom_site_symmetry_multiplicity
  _atom_site_fract_x
  _atom_site_fract_y
  _atom_site_fract_z
  _atom_site_occupancy
  Tl  Tl1       1.0  0.24999995220068902  0.2500000036497614  0.2500000430604864  1.0000
  Tl  Tl2       1.0  0.7500000363352594  0.7499999546124169  0.7500001079065305  1.0000
  Cu  Cu1       1.0  0.9999999395682154  4.609379493117066e-08  0.9999999430493773  1.0000
  Cl  Cl1       1.0  0.23097848789855077  0.2309784251869075  0.7690217596079784  1.0000
  Cl  Cl2       1.0  0.7690213497921865  0.7690217345222647  0.23097860859759356  1.0000
  Cl  Cl3       1.0  0.769021581711131  0.2309786197649837  0.23097835616653328  1.0000
  Cl  Cl4       1.0  0.2309783966626441  0.7690213931268591  0.769021500755306  1.0000
  Cl  Cl5       1.0  0.23097854433978374  0.7690212008400658  0.2309785527473022  1.0000
  Cl  Cl6       1.0  0.7690217180974264  0.23097860206889864  0.7690211319254794  1.0000
