data_image0
_chemical_formula_structural       Tl2CoI6
_chemical_formula_sum              "Tl2 Co1 I6"
_cell_length_a       7.702473264047945
_cell_length_b       7.70247358984752
_cell_length_c       7.702473011547857
_cell_angle_alpha    60.00000128439606
_cell_angle_beta     60.000002630997294
_cell_angle_gamma    59.99999924750405

_space_group_name_H-M_alt    "P 1"
_space_group_IT_number       1

loop_
  _space_group_symop_operation_xyz
  'x, y, z'

loop_
  _atom_site_type_symbol
  _atom_site_label
  _atom_site_symmetry_multiplicity
  _atom_site_fract_x
  _atom_site_fract_y
  _atom_site_fract_z
  _atom_site_occupancy
  Tl  Tl1       1.0  0.2499999442329398  0.25000008826213155  0.24999996937801952  1.0000
  Tl  Tl2       1.0  0.7500000566357093  0.7499998943007897  0.7500000307432265  1.0000
  Co  Co1       1.0  0.9999999284652638  3.021127423397388e-08  6.38060227220867e-09  1.0000
  I   I1        1.0  0.24603459137170083  0.24603443421190352  0.7539654590908824  1.0000
  I   I2        1.0  0.7539654758665272  0.7539656055934256  0.24603448182093904  1.0000
  I   I3        1.0  0.753965475045256  0.24603457244099178  0.24603455009938419  1.0000
  I   I4        1.0  0.24603449381165066  0.7539654117119973  0.7539654730224047  1.0000
  I   I5        1.0  0.2460345284566916  0.7539654279458475  0.2460346214528985  1.0000
  I   I6        1.0  0.7539654865250841  0.24603454825680504  0.753965407249027  1.0000
