data_image0
_chemical_formula_structural       Tl2CaCl6
_chemical_formula_sum              "Tl2 Ca1 Cl6"
_cell_length_a       7.4749055791896915
_cell_length_b       7.474905426997552
_cell_length_c       7.474905133988879
_cell_angle_alpha    60.00000260455475
_cell_angle_beta     60.00000138067165
_cell_angle_gamma    59.99999977545664

_space_group_name_H-M_alt    "P 1"
_space_group_IT_number       1

loop_
  _space_group_symop_operation_xyz
  'x, y, z'

loop_
  _atom_site_type_symbol
  _atom_site_label
  _atom_site_symmetry_multiplicity
  _atom_site_fract_x
  _atom_site_fract_y
  _atom_site_fract_z
  _atom_site_occupancy
  Tl  Tl1       1.0  0.24999998738274545  0.24999999773501336  0.2500000118760136  1.0000
  Tl  Tl2       1.0  0.7500000144053554  0.7499999800972361  0.7500000107021444  1.0000
  Ca  Ca1       1.0  0.9999999879229635  0.9999999852537214  0.9999999839798459  1.0000
  Cl  Cl1       1.0  0.2534269522246769  0.2534269790385237  0.7465730472508416  1.0000
  Cl  Cl2       1.0  0.7465730005832563  0.7465730020706769  0.2534269714227325  1.0000
  Cl  Cl3       1.0  0.7465730910344982  0.2534269406784919  0.2534269230690693  1.0000
  Cl  Cl4       1.0  0.2534269223460316  0.7465731043312469  0.7465730119629838  1.0000
  Cl  Cl5       1.0  0.2534269398133326  0.7465730746209709  0.25342695349583566  1.0000
  Cl  Cl6       1.0  0.7465731154794597  0.25342693270383515  0.7465730596911292  1.0000
