data_image0
_chemical_formula_structural       Tl2CdCl6
_chemical_formula_sum              "Tl2 Cd1 Cl6"
_cell_length_a       7.348702467613113
_cell_length_b       7.348701974159378
_cell_length_c       7.348702540188333
_cell_angle_alpha    59.999999913361854
_cell_angle_beta     60.00000109005793
_cell_angle_gamma    60.000000917735115

_space_group_name_H-M_alt    "P 1"
_space_group_IT_number       1

loop_
  _space_group_symop_operation_xyz
  'x, y, z'

loop_
  _atom_site_type_symbol
  _atom_site_label
  _atom_site_symmetry_multiplicity
  _atom_site_fract_x
  _atom_site_fract_y
  _atom_site_fract_z
  _atom_site_occupancy
  Tl  Tl1       1.0  0.2500000133094027  0.24999995936091632  0.25000008901835047  1.0000
  Tl  Tl2       1.0  0.7500000165792599  0.7499999764129627  0.7500000063957736  1.0000
  Cd  Cd1       1.0  2.1758979655325027e-09  0.999999913336079  8.851068056534648e-08  1.0000
  Cl  Cl1       1.0  0.251056158021023  0.2510562388733786  0.748943783030326  1.0000
  Cl  Cl2       1.0  0.7489437886023645  0.7489438335628343  0.25105615641074935  1.0000
  Cl  Cl3       1.0  0.7489437777225764  0.2510562455942095  0.25105614050777686  1.0000
  Cl  Cl4       1.0  0.2510562411968961  0.7489437985095684  0.7489437606220609  1.0000
  Cl  Cl5       1.0  0.2510562412597336  0.7489437722834569  0.2510561819838354  1.0000
  Cl  Cl6       1.0  0.7489437566936744  0.2510562451545003  0.7489438191658722  1.0000
