data_image0
_chemical_formula_structural       Tl2CdI6
_chemical_formula_sum              "Tl2 Cd1 I6"
_cell_length_a       8.056404123028496
_cell_length_b       8.056404700040991
_cell_length_c       8.05640470152889
_cell_angle_alpha    59.999994695087906
_cell_angle_beta     60.00000355408622
_cell_angle_gamma    60.00000026528031

_space_group_name_H-M_alt    "P 1"
_space_group_IT_number       1

loop_
  _space_group_symop_operation_xyz
  'x, y, z'

loop_
  _atom_site_type_symbol
  _atom_site_label
  _atom_site_symmetry_multiplicity
  _atom_site_fract_x
  _atom_site_fract_y
  _atom_site_fract_z
  _atom_site_occupancy
  Tl  Tl1       1.0  0.24999997859145887  0.2500000214983298  0.25000000601668204  1.0000
  Tl  Tl2       1.0  0.7500000138814266  0.7500000021662697  0.7499999729234329  1.0000
  Cd  Cd1       1.0  0.9999999714662918  0.9999999179085047  1.1737502721342374e-07  1.0000
  I   I1        1.0  0.26146777366232904  0.26146771611661435  0.738532226376921  1.0000
  I   I2        1.0  0.7385321874674131  0.7385322725830887  0.2614678105421833  1.0000
  I   I3        1.0  0.7385320763501252  0.26146788637905544  0.2614679028275793  1.0000
  I   I4        1.0  0.2614679923618307  0.7385320977600134  0.7385320527907768  1.0000
  I   I5        1.0  0.26146786587667414  0.7385320778172726  0.26146776139172684  1.0000
  I   I6        1.0  0.7385321407251949  0.2614680066558389  0.7385321676671536  1.0000
