data_image0
_chemical_formula_structural       Tl2CaI6
_chemical_formula_sum              "Tl2 Ca1 I6"
_cell_length_a       8.256387787862314
_cell_length_b       8.256387696808513
_cell_length_c       8.256387474606427
_cell_angle_alpha    60.00000079993025
_cell_angle_beta     60.000000799432506
_cell_angle_gamma    59.99999833436982

_space_group_name_H-M_alt    "P 1"
_space_group_IT_number       1

loop_
  _space_group_symop_operation_xyz
  'x, y, z'

loop_
  _atom_site_type_symbol
  _atom_site_label
  _atom_site_symmetry_multiplicity
  _atom_site_fract_x
  _atom_site_fract_y
  _atom_site_fract_z
  _atom_site_occupancy
  Tl  Tl1       1.0  0.25000002607508787  0.25000003175816177  0.2499999728008059  1.0000
  Tl  Tl2       1.0  0.7500000342084496  0.749999958802542  0.7500000001685124  1.0000
  Ca  Ca1       1.0  0.9999999737643164  1.290549915253712e-07  0.9999999800811162  1.0000
  I   I1        1.0  0.26489104544925635  0.2648913207694936  0.7351087922272054  1.0000
  I   I2        1.0  0.7351088215090187  0.735108662374261  0.2648912799020358  1.0000
  I   I3        1.0  0.7351087871773009  0.2648912401375217  0.2648911735634039  1.0000
  I   I4        1.0  0.2648912870506106  0.7351086792204282  0.7351087747430315  1.0000
  I   I5        1.0  0.2648912689053538  0.7351086981764385  0.26489124494716754  1.0000
  I   I6        1.0  0.7351087651450016  0.26489127458357725  0.7351087766851221  1.0000
