data_image0
_chemical_formula_structural       Tl2FeCl6
_chemical_formula_sum              "Tl2 Fe1 Cl6"
_cell_length_a       7.123685538723357
_cell_length_b       7.1236853995100535
_cell_length_c       7.123686356485031
_cell_angle_alpha    59.99999628104574
_cell_angle_beta     59.999997557034874
_cell_angle_gamma    59.99999867272477

_space_group_name_H-M_alt    "P 1"
_space_group_IT_number       1

loop_
  _space_group_symop_operation_xyz
  'x, y, z'

loop_
  _atom_site_type_symbol
  _atom_site_label
  _atom_site_symmetry_multiplicity
  _atom_site_fract_x
  _atom_site_fract_y
  _atom_site_fract_z
  _atom_site_occupancy
  Tl  Tl1       1.0  0.25000000027280617  0.25000001894527735  0.2500000001813034  1.0000
  Tl  Tl2       1.0  0.7499999872132946  0.7500000052581084  0.74999997698463  1.0000
  Fe  Fe1       1.0  0.9999998709829235  0.9999998521438579  1.482629802911758e-07  1.0000
  Cl  Cl1       1.0  0.22948124938971207  0.22948146656806478  0.770518685426153  1.0000
  Cl  Cl2       1.0  0.7705187682000164  0.7705189341527022  0.2294811558101224  1.0000
  Cl  Cl3       1.0  0.7705186875490284  0.22948102474730273  0.22948134292364938  1.0000
  Cl  Cl4       1.0  0.22948132651832923  0.7705185404143453  0.7705188771441062  1.0000
  Cl  Cl5       1.0  0.22948128119525396  0.7705188292919481  0.229481066854441  1.0000
  Cl  Cl6       1.0  0.7705188405640209  0.22948132213649028  0.7705187177966073  1.0000
