data_image0
_chemical_formula_structural       Tl2FeI6
_chemical_formula_sum              "Tl2 Fe1 I6"
_cell_length_a       7.81242072470778
_cell_length_b       7.812420048001896
_cell_length_c       7.812419207449381
_cell_angle_alpha    60.000001315016156
_cell_angle_beta     60.0000067376395
_cell_angle_gamma    59.99999964112781

_space_group_name_H-M_alt    "P 1"
_space_group_IT_number       1

loop_
  _space_group_symop_operation_xyz
  'x, y, z'

loop_
  _atom_site_type_symbol
  _atom_site_label
  _atom_site_symmetry_multiplicity
  _atom_site_fract_x
  _atom_site_fract_y
  _atom_site_fract_z
  _atom_site_occupancy
  Tl  Tl1       1.0  0.24999995258310442  0.25000001867242094  0.24999999872715717  1.0000
  Tl  Tl2       1.0  0.7500000495194046  0.7500001014802549  0.749999945405631  1.0000
  Fe  Fe1       1.0  0.9999996921031037  2.0536733141350086e-07  0.9999998349425412  1.0000
  I   I1        1.0  0.22371688527624828  0.22371692780708394  0.7762831161204292  1.0000
  I   I2        1.0  0.77628335797088  0.7762831029872876  0.22371680075970676  1.0000
  I   I3        1.0  0.7762834345292251  0.2237162362496846  0.22371649940756053  1.0000
  I   I4        1.0  0.22371660550022504  0.7762835484174381  0.7762836651852809  1.0000
  I   I5        1.0  0.22371656040849616  0.7762835897791895  0.223716270784114  1.0000
  I   I6        1.0  0.7762834353542801  0.2237162168355855  0.7762839369685686  1.0000
