data_image0
_chemical_formula_structural       Tl2FeBr6
_chemical_formula_sum              "Tl2 Fe1 Br6"
_cell_length_a       7.4606831236061195
_cell_length_b       7.46068412776112
_cell_length_c       7.460683926214883
_cell_angle_alpha    59.99999618253986
_cell_angle_beta     59.99999751979126
_cell_angle_gamma    59.999999286282

_space_group_name_H-M_alt    "P 1"
_space_group_IT_number       1

loop_
  _space_group_symop_operation_xyz
  'x, y, z'

loop_
  _atom_site_type_symbol
  _atom_site_label
  _atom_site_symmetry_multiplicity
  _atom_site_fract_x
  _atom_site_fract_y
  _atom_site_fract_z
  _atom_site_occupancy
  Tl  Tl1       1.0  0.24999997897974263  0.24999999062870842  0.25000001729838156  1.0000
  Tl  Tl2       1.0  0.7500000307864909  0.7500000014349014  0.7499999727724488  1.0000
  Fe  Fe1       1.0  1.1882831074911409e-09  0.9999999917920076  0.9999999887658984  1.0000
  Br  Br1       1.0  0.21649408205109547  0.21649440334135278  0.7835058188855478  1.0000
  Br  Br2       1.0  0.7835060030970691  0.7835057479573175  0.21649420131634778  1.0000
  Br  Br3       1.0  0.7835057468290444  0.21649426956446696  0.216494365911901  1.0000
  Br  Br4       1.0  0.21649420239132003  0.7835055698304715  0.7835056758114574  1.0000
  Br  Br5       1.0  0.21649411033727325  0.7835057764324742  0.21649436302296385  1.0000
  Br  Br6       1.0  0.7835058760254754  0.21649422548073174  0.783505562785747  1.0000
