data_image0
_chemical_formula_structural       Tl2GaF6
_chemical_formula_sum              "Tl2 Ga1 F6"
_cell_length_a       6.21321767637101
_cell_length_b       6.213218779092996
_cell_length_c       6.213217458259783
_cell_angle_alpha    59.999995455849
_cell_angle_beta     59.99999917514095
_cell_angle_gamma    59.9999965544984

_space_group_name_H-M_alt    "P 1"
_space_group_IT_number       1

loop_
  _space_group_symop_operation_xyz
  'x, y, z'

loop_
  _atom_site_type_symbol
  _atom_site_label
  _atom_site_symmetry_multiplicity
  _atom_site_fract_x
  _atom_site_fract_y
  _atom_site_fract_z
  _atom_site_occupancy
  Tl  Tl1       1.0  0.2499998462557303  0.2500000811247194  0.2500000558904108  1.0000
  Tl  Tl2       1.0  0.7499999208657674  0.7499998274525626  0.7500001475649148  1.0000
  Ga  Ga1       1.0  5.346369441884391e-08  0.9999999901440322  8.776106228039877e-09  1.0000
  F   F1        1.0  0.21993788760433514  0.219937894565323  0.7800620576814605  1.0000
  F   F2        1.0  0.7800622182428677  0.78006211848514  0.21993790486074286  1.0000
  F   F3        1.0  0.7800619103946468  0.21993785471946928  0.21993801721011635  1.0000
  F   F4        1.0  0.21993801409676578  0.7800619552981771  0.7800622501894562  1.0000
  F   F5        1.0  0.2199379428831358  0.7800621468150593  0.21993775638009483  1.0000
  F   F6        1.0  0.7800618467973781  0.21993807321061556  0.780062243053641  1.0000
