data_image0
_chemical_formula_structural       Tl2GaCl6
_chemical_formula_sum              "Tl2 Ga1 Cl6"
_cell_length_a       7.2204232172459015
_cell_length_b       7.22042325818206
_cell_length_c       7.220423264671241
_cell_angle_alpha    59.99999532575661
_cell_angle_beta     59.99999691943796
_cell_angle_gamma    59.99999990751089

_space_group_name_H-M_alt    "P 1"
_space_group_IT_number       1

loop_
  _space_group_symop_operation_xyz
  'x, y, z'

loop_
  _atom_site_type_symbol
  _atom_site_label
  _atom_site_symmetry_multiplicity
  _atom_site_fract_x
  _atom_site_fract_y
  _atom_site_fract_z
  _atom_site_occupancy
  Tl  Tl1       1.0  0.2499999778855853  0.25000000032453235  0.25000002270066995  1.0000
  Tl  Tl2       1.0  0.7499999580829356  0.7499998941115329  0.7500002422761498  1.0000
  Ga  Ga1       1.0  0.9999999470956268  6.276025812987273e-08  0.9999999313638799  1.0000
  Cl  Cl1       1.0  0.23286653802214682  0.23286654575246557  0.7671334387130155  1.0000
  Cl  Cl2       1.0  0.7671335012633398  0.7671334657230089  0.23286652496108087  1.0000
  Cl  Cl3       1.0  0.7671335966571707  0.23286661377294612  0.23286638296052292  1.0000
  Cl  Cl4       1.0  0.23286652443220276  0.7671333010178096  0.7671336089283964  1.0000
  Cl  Cl5       1.0  0.23286649858649952  0.7671333912160502  0.2328664612943655  1.0000
  Cl  Cl6       1.0  0.767133497356615  0.23286674069127195  0.7671333613479231  1.0000
