data_image0
_chemical_formula_structural       Tl2GaI6
_chemical_formula_sum              "Tl2 Ga1 I6"
_cell_length_a       7.930265750050121
_cell_length_b       7.9302652397935764
_cell_length_c       7.930265375875797
_cell_angle_alpha    60.00000177491399
_cell_angle_beta     59.999998868803765
_cell_angle_gamma    59.99999793614147

_space_group_name_H-M_alt    "P 1"
_space_group_IT_number       1

loop_
  _space_group_symop_operation_xyz
  'x, y, z'

loop_
  _atom_site_type_symbol
  _atom_site_label
  _atom_site_symmetry_multiplicity
  _atom_site_fract_x
  _atom_site_fract_y
  _atom_site_fract_z
  _atom_site_occupancy
  Tl  Tl1       1.0  0.2500000262717489  0.24999999578924462  0.24999997722037887  1.0000
  Tl  Tl2       1.0  0.7499999789345273  0.7500000074448494  0.7499999904778185  1.0000
  Ga  Ga1       1.0  0.9999999701140216  0.999999989189248  3.800225146726393e-08  1.0000
  I   I1        1.0  0.24887553795098358  0.24887537151865563  0.7511245779137676  1.0000
  I   I2        1.0  0.7511245268505936  0.7511246626033065  0.24887542398533086  1.0000
  I   I3        1.0  0.7511246158285235  0.24887535571314032  0.24887546571420344  1.0000
  I   I4        1.0  0.24887538034866286  0.751124561034929  0.7511245648734521  1.0000
  I   I5        1.0  0.24887547669023832  0.7511245487657969  0.24887544777898835  1.0000
  I   I6        1.0  0.7511244835974433  0.2488755193328173  0.7511245074242644  1.0000
