data_image0
_chemical_formula_structural       Tl2GeI6
_chemical_formula_sum              "Tl2 Ge1 I6"
_cell_length_a       7.961768357834277
_cell_length_b       7.96176806107427
_cell_length_c       7.961768085929377
_cell_angle_alpha    60.00000135565355
_cell_angle_beta     59.999999701397776
_cell_angle_gamma    59.999995860609616

_space_group_name_H-M_alt    "P 1"
_space_group_IT_number       1

loop_
  _space_group_symop_operation_xyz
  'x, y, z'

loop_
  _atom_site_type_symbol
  _atom_site_label
  _atom_site_symmetry_multiplicity
  _atom_site_fract_x
  _atom_site_fract_y
  _atom_site_fract_z
  _atom_site_occupancy
  Tl  Tl1       1.0  0.25000002564426754  0.24999998958578093  0.2500000272384978  1.0000
  Tl  Tl2       1.0  0.7499999850205348  0.7500000225972325  0.7499999437513815  1.0000
  Ge  Ge1       1.0  0.9999999720042932  2.307423920379439e-08  0.9999999949247198  1.0000
  I   I1        1.0  0.2580070389191878  0.25800700998269915  0.741992977376002  1.0000
  I   I2        1.0  0.7419929551186235  0.7419929868174899  0.2580070234348115  1.0000
  I   I3        1.0  0.7419929806368103  0.25800699574431896  0.2580070064549202  1.0000
  I   I4        1.0  0.25800700751179806  0.7419930056707182  0.7419930100650999  1.0000
  I   I5        1.0  0.2580069935096987  0.7419928858359642  0.25800711451747665  1.0000
  I   I6        1.0  0.7419930415765787  0.2580070878899854  0.7419929074502812  1.0000
