data_image0
_chemical_formula_structural       Tl2GaF6
_chemical_formula_sum              "Tl2 Ga1 F6"
_cell_length_a       6.212389413816124
_cell_length_b       6.212389721182668
_cell_length_c       6.212389555918839
_cell_angle_alpha    60.00000233310682
_cell_angle_beta     60.00000263142671
_cell_angle_gamma    60.00000365358495

_space_group_name_H-M_alt    "P 1"
_space_group_IT_number       1

loop_
  _space_group_symop_operation_xyz
  'x, y, z'

loop_
  _atom_site_type_symbol
  _atom_site_label
  _atom_site_symmetry_multiplicity
  _atom_site_fract_x
  _atom_site_fract_y
  _atom_site_fract_z
  _atom_site_occupancy
  Tl  Tl1       1.0  0.24999992138640345  0.24999999649751067  0.25000015838235934  1.0000
  Tl  Tl2       1.0  0.7499999557186584  0.7499999835781678  0.7500000233644373  1.0000
  Ga  Ga1       1.0  1.4080402026808601e-08  4.1400560252210115e-08  0.9999999497239078  1.0000
  F   F1        1.0  0.21995538931628597  0.21995547341913627  0.7800445451430927  1.0000
  F   F2        1.0  0.7800447108334814  0.7800445066565446  0.2199553528448931  1.0000
  F   F3        1.0  0.7800446520184465  0.21995548414473265  0.21995531443747818  1.0000
  F   F4        1.0  0.2199553134765613  0.7800446043609848  0.7800445741272548  1.0000
  F   F5        1.0  0.21995539916612739  0.7800445352759557  0.21995537491375078  1.0000
  F   F6        1.0  0.7800446535399352  0.21995543099953768  0.7800445311605679  1.0000
