data_image0
_chemical_formula_structural       Tl2GaI6
_chemical_formula_sum              "Tl2 Ga1 I6"
_cell_length_a       7.935028687763059
_cell_length_b       7.935028688524671
_cell_length_c       7.935028674661095
_cell_angle_alpha    59.999999996261735
_cell_angle_beta     60.00000007294085
_cell_angle_gamma    60.00000003911849

_space_group_name_H-M_alt    "P 1"
_space_group_IT_number       1

loop_
  _space_group_symop_operation_xyz
  'x, y, z'

loop_
  _atom_site_type_symbol
  _atom_site_label
  _atom_site_symmetry_multiplicity
  _atom_site_fract_x
  _atom_site_fract_y
  _atom_site_fract_z
  _atom_site_occupancy
  Tl  Tl1       1.0  0.25000000468238054  0.249999996853117  0.250000004527961  1.0000
  Tl  Tl2       1.0  0.7499999938358264  0.7500000075374793  0.7499999925162485  1.0000
  Ga  Ga1       1.0  0.9999999955461459  4.630398637036784e-09  1.7555016166203074e-08  1.0000
  I   I1        1.0  0.24865941835063615  0.24865942042972866  0.7513405812014394  1.0000
  I   I2        1.0  0.7513405758902613  0.7513405793304689  0.24865942155685908  1.0000
  I   I3        1.0  0.751340581270938  0.2486594223211659  0.24865941500960292  1.0000
  I   I4        1.0  0.2486594390020504  0.7513405604609034  0.7513405718796002  1.0000
  I   I5        1.0  0.24865941899566607  0.7513405809114128  0.24865942158968854  1.0000
  I   I6        1.0  0.7513405701886164  0.24865942965304833  0.7513405770345506  1.0000
