data_image0
_chemical_formula_structural       Tl2GaBr6
_chemical_formula_sum              "Tl2 Ga1 Br6"
_cell_length_a       7.449989093417554
_cell_length_b       7.4499890420060435
_cell_length_c       7.449989312691483
_cell_angle_alpha    60.00000051019177
_cell_angle_beta     60.00000086987282
_cell_angle_gamma    60.000001107420196

_space_group_name_H-M_alt    "P 1"
_space_group_IT_number       1

loop_
  _space_group_symop_operation_xyz
  'x, y, z'

loop_
  _atom_site_type_symbol
  _atom_site_label
  _atom_site_symmetry_multiplicity
  _atom_site_fract_x
  _atom_site_fract_y
  _atom_site_fract_z
  _atom_site_occupancy
  Tl  Tl1       1.0  0.24999998928421815  0.25000000432043834  0.2500000090637586  1.0000
  Tl  Tl2       1.0  0.7500000115329164  0.7499999981657178  0.7499999926146866  1.0000
  Ga  Ga1       1.0  2.1793119189646098e-08  0.9999999950681325  0.9999998398913045  1.0000
  Br  Br1       1.0  0.2427060966673016  0.24270607363515892  0.7572938632911601  1.0000
  Br  Br2       1.0  0.7572939375902857  0.7572939633740572  0.24270604802961  1.0000
  Br  Br3       1.0  0.7572937790460218  0.24270615742363094  0.2427061847221372  1.0000
  Br  Br4       1.0  0.2427060218427524  0.7572939798668551  0.7572939313976343  1.0000
  Br  Br5       1.0  0.24270618362957602  0.7572938238640956  0.24270614735682708  1.0000
  Br  Br6       1.0  0.7572939949951158  0.24270598463534337  0.7572939563710643  1.0000
