data_image0
_chemical_formula_structural       Tl2GaCl6
_chemical_formula_sum              "Tl2 Ga1 Cl6"
_cell_length_a       7.216854539023203
_cell_length_b       7.2168553963714075
_cell_length_c       7.216854772870749
_cell_angle_alpha    60.00000101923146
_cell_angle_beta     60.00000188477921
_cell_angle_gamma    60.00000043026972

_space_group_name_H-M_alt    "P 1"
_space_group_IT_number       1

loop_
  _space_group_symop_operation_xyz
  'x, y, z'

loop_
  _atom_site_type_symbol
  _atom_site_label
  _atom_site_symmetry_multiplicity
  _atom_site_fract_x
  _atom_site_fract_y
  _atom_site_fract_z
  _atom_site_occupancy
  Tl  Tl1       1.0  0.25000000770161424  0.2499999821755466  0.2500000090532526  1.0000
  Tl  Tl2       1.0  0.7500000133744511  0.750000009317921  0.7500000047862473  1.0000
  Ga  Ga1       1.0  4.0405000902870574e-08  0.999999950785218  0.9999997896298899  1.0000
  Cl  Cl1       1.0  0.2329923938108988  0.23299242884606586  0.7670075708432602  1.0000
  Cl  Cl2       1.0  0.7670076122827766  0.7670075931945143  0.23299235068952198  1.0000
  Cl  Cl3       1.0  0.7670075742242513  0.23299242311769175  0.23299247198366832  1.0000
  Cl  Cl4       1.0  0.23299226048855473  0.7670077482643105  0.7670077030567374  1.0000
  Cl  Cl5       1.0  0.23299240707693536  0.7670075871700571  0.2329924112229583  1.0000
  Cl  Cl6       1.0  0.7670076972826667  0.2329922600731651  0.7670077176242555  1.0000
