data_image0
_chemical_formula_structural       Tl2GaBr6
_chemical_formula_sum              "Tl2 Ga1 Br6"
_cell_length_a       7.447892344593124
_cell_length_b       7.4478923888405575
_cell_length_c       7.447892325861592
_cell_angle_alpha    59.999999394766164
_cell_angle_beta     60.000001735038005
_cell_angle_gamma    59.99999881954356

_space_group_name_H-M_alt    "P 1"
_space_group_IT_number       1

loop_
  _space_group_symop_operation_xyz
  'x, y, z'

loop_
  _atom_site_type_symbol
  _atom_site_label
  _atom_site_symmetry_multiplicity
  _atom_site_fract_x
  _atom_site_fract_y
  _atom_site_fract_z
  _atom_site_occupancy
  Tl  Tl1       1.0  0.2500000200256837  0.24999995411298753  0.24999998176221858  1.0000
  Tl  Tl2       1.0  0.7499999663318555  0.7500000086921705  0.7500000653327762  1.0000
  Ga  Ga1       1.0  0.9999999779642424  9.866508486921931e-08  0.9999999630279971  1.0000
  Br  Br1       1.0  0.2428191644394511  0.24281929197612945  0.7571807804684892  1.0000
  Br  Br2       1.0  0.7571807459954871  0.7571807497610976  0.24281925438047622  1.0000
  Br  Br3       1.0  0.7571808181851  0.24281913914170772  0.24281917288305654  1.0000
  Br  Br4       1.0  0.2428192660339785  0.7571808137969414  0.7571807697946465  1.0000
  Br  Br5       1.0  0.24281923152063223  0.7571808172343918  0.24281920323804748  1.0000
  Br  Br6       1.0  0.7571807627445873  0.2428191916144723  0.7571808168812538  1.0000
