data_image0
_chemical_formula_structural       Tl2HgCl6
_chemical_formula_sum              "Tl2 Hg1 Cl6"
_cell_length_a       7.334457950985935
_cell_length_b       7.334457892022593
_cell_length_c       7.334457865451841
_cell_angle_alpha    60.000001958286724
_cell_angle_beta     60.00000206131168
_cell_angle_gamma    60.000002595516044

_space_group_name_H-M_alt    "P 1"
_space_group_IT_number       1

loop_
  _space_group_symop_operation_xyz
  'x, y, z'

loop_
  _atom_site_type_symbol
  _atom_site_label
  _atom_site_symmetry_multiplicity
  _atom_site_fract_x
  _atom_site_fract_y
  _atom_site_fract_z
  _atom_site_occupancy
  Tl  Tl1       1.0  0.2500000286660732  0.24999991209222044  0.25000005633983347  1.0000
  Tl  Tl2       1.0  0.7499999139928544  0.7499999500175245  0.7499999872673323  1.0000
  Hg  Hg1       1.0  0.9999999994433816  1.6698485855184855e-09  0.9999998658275107  1.0000
  Cl  Cl1       1.0  0.2536282515606533  0.25362822073873365  0.7463717112152004  1.0000
  Cl  Cl2       1.0  0.7463718106341923  0.7463718400832263  0.25362815690677554  1.0000
  Cl  Cl3       1.0  0.7463717262169984  0.2536282099878465  0.25362827635201995  1.0000
  Cl  Cl4       1.0  0.2536281170312918  0.7463718842311239  0.7463719122370833  1.0000
  Cl  Cl5       1.0  0.25362821970884886  0.7463719054690365  0.25362811293737286  1.0000
  Cl  Cl6       1.0  0.7463719427369472  0.2536280718604008  0.7463719090532367  1.0000
