data_image0
_chemical_formula_structural       Tl2HgBr6
_chemical_formula_sum              "Tl2 Hg1 Br6"
_cell_length_a       7.5162876964224745
_cell_length_b       7.516288154756074
_cell_length_c       7.516288199545081
_cell_angle_alpha    60.00000134218265
_cell_angle_beta     60.000002815533804
_cell_angle_gamma    60.00000325682691

_space_group_name_H-M_alt    "P 1"
_space_group_IT_number       1

loop_
  _space_group_symop_operation_xyz
  'x, y, z'

loop_
  _atom_site_type_symbol
  _atom_site_label
  _atom_site_symmetry_multiplicity
  _atom_site_fract_x
  _atom_site_fract_y
  _atom_site_fract_z
  _atom_site_occupancy
  Tl  Tl1       1.0  0.24999998918518207  0.250000013616688  0.25000000704951375  1.0000
  Tl  Tl2       1.0  0.7500000245996946  0.7500000033726147  0.7499999874172026  1.0000
  Hg  Hg1       1.0  0.9999998937953901  3.747744871447783e-08  2.904180128894074e-08  1.0000
  Br  Br1       1.0  0.26168770823558096  0.2616878299514418  0.7383122279934551  1.0000
  Br  Br2       1.0  0.738312264253794  0.738312338577115  0.2616876089072028  1.0000
  Br  Br3       1.0  0.7383122319722054  0.2616877727597851  0.2616877325688121  1.0000
  Br  Br4       1.0  0.2616877294705039  0.738312276818604  0.7383122558091159  1.0000
  Br  Br5       1.0  0.2616877454137166  0.7383122026055671  0.2616878241873436  1.0000
  Br  Br6       1.0  0.7383124070744091  0.26168752271140866  0.7383123412254325  1.0000
