data_image0
_chemical_formula_structural       Tl2HgI6
_chemical_formula_sum              "Tl2 Hg1 I6"
_cell_length_a       8.015498540261218
_cell_length_b       8.015498791282177
_cell_length_c       8.015498841277612
_cell_angle_alpha    59.99999657116735
_cell_angle_beta     60.000000119674525
_cell_angle_gamma    60.00000217542282

_space_group_name_H-M_alt    "P 1"
_space_group_IT_number       1

loop_
  _space_group_symop_operation_xyz
  'x, y, z'

loop_
  _atom_site_type_symbol
  _atom_site_label
  _atom_site_symmetry_multiplicity
  _atom_site_fract_x
  _atom_site_fract_y
  _atom_site_fract_z
  _atom_site_occupancy
  Tl  Tl1       1.0  0.2500000549429874  0.24999995769451056  0.2499999588967204  1.0000
  Tl  Tl2       1.0  0.7499999540640909  0.7500000472722019  0.750000024726886  1.0000
  Hg  Hg1       1.0  2.6017914593734932e-08  0.9999999954160844  8.160414203916248e-08  1.0000
  I   I1        1.0  0.26427024798765847  0.2642702597545863  0.7357298595263702  1.0000
  I   I2        1.0  0.7357297235068158  0.7357296978450235  0.26427024014448675  1.0000
  I   I3        1.0  0.7357298170339582  0.2642701270568755  0.2642703235929494  1.0000
  I   I4        1.0  0.26427028428791416  0.73572982137492  0.7357295660381583  1.0000
  I   I5        1.0  0.26427026162066697  0.7357298181046508  0.2642701458722894  1.0000
  I   I6        1.0  0.7357296345538824  0.2642702617326348  0.7357297931055594  1.0000
