data_image0
_chemical_formula_structural       Tl2HgF6
_chemical_formula_sum              "Tl2 Hg1 F6"
_cell_length_a       6.367639706581437
_cell_length_b       6.367640090942968
_cell_length_c       6.367640304923503
_cell_angle_alpha    59.999998915995434
_cell_angle_beta     59.999997022924745
_cell_angle_gamma    59.99999957899276

_space_group_name_H-M_alt    "P 1"
_space_group_IT_number       1

loop_
  _space_group_symop_operation_xyz
  'x, y, z'

loop_
  _atom_site_type_symbol
  _atom_site_label
  _atom_site_symmetry_multiplicity
  _atom_site_fract_x
  _atom_site_fract_y
  _atom_site_fract_z
  _atom_site_occupancy
  Tl  Tl1       1.0  0.24999995352601712  0.24999998391327088  0.250000043757526  1.0000
  Tl  Tl2       1.0  0.7500000611853204  0.7500000190584258  0.750000038141089  1.0000
  Hg  Hg1       1.0  7.322577307322277e-10  2.5004056662883536e-08  0.9999999918431642  1.0000
  F   F1        1.0  0.23970289557147226  0.23970283056018443  0.7602971301670858  1.0000
  F   F2        1.0  0.7602969812845809  0.7602972378067381  0.23970285604455935  1.0000
  F   F3        1.0  0.7602970626262685  0.23970291683403852  0.23970288756342614  1.0000
  F   F4        1.0  0.23970293215666544  0.7602970534400457  0.7602970840198764  1.0000
  F   F5        1.0  0.23970290696320612  0.7602971323942809  0.23970284778428166  1.0000
  F   F6        1.0  0.7602972119190325  0.23970276479102173  0.7602971611113782  1.0000
