data_image0
_chemical_formula_structural       Tl2InI6
_chemical_formula_sum              "Tl2 In1 I6"
_cell_length_a       8.101808024247664
_cell_length_b       8.101807936929685
_cell_length_c       8.101808350493092
_cell_angle_alpha    59.99999859822392
_cell_angle_beta     59.99999964943265
_cell_angle_gamma    60.000000678994226

_space_group_name_H-M_alt    "P 1"
_space_group_IT_number       1

loop_
  _space_group_symop_operation_xyz
  'x, y, z'

loop_
  _atom_site_type_symbol
  _atom_site_label
  _atom_site_symmetry_multiplicity
  _atom_site_fract_x
  _atom_site_fract_y
  _atom_site_fract_z
  _atom_site_occupancy
  Tl  Tl1       1.0  0.2500000408853662  0.24999997982039013  0.25000000620734525  1.0000
  Tl  Tl2       1.0  0.7499999486460973  0.7500000210926059  0.7500000067995775  1.0000
  In  In1       1.0  2.4749909707335375e-09  6.953789216410573e-08  1.195143936413272e-07  1.0000
  I   I1        1.0  0.253913273172749  0.2539133031543872  0.7460867500038494  1.0000
  I   I2        1.0  0.74608665566383  0.7460866917118343  0.25391333216838013  1.0000
  I   I3        1.0  0.7460867487136539  0.25391329716953187  0.25391332393784233  1.0000
  I   I4        1.0  0.2539134318887099  0.74608654955075  0.7460864854861373  1.0000
  I   I5        1.0  0.25391337559289234  0.7460866268722819  0.25391336034297474  1.0000
  I   I6        1.0  0.7460865238447068  0.2539134647423109  0.7460866140970187  1.0000
