data_image0
_chemical_formula_structural       Tl2IrF6
_chemical_formula_sum              "Tl2 Ir1 F6"
_cell_length_a       6.332823608192976
_cell_length_b       6.332823512410438
_cell_length_c       6.33282391824321
_cell_angle_alpha    60.00000086023594
_cell_angle_beta     60.000000309926094
_cell_angle_gamma    60.00000146328357

_space_group_name_H-M_alt    "P 1"
_space_group_IT_number       1

loop_
  _space_group_symop_operation_xyz
  'x, y, z'

loop_
  _atom_site_type_symbol
  _atom_site_label
  _atom_site_symmetry_multiplicity
  _atom_site_fract_x
  _atom_site_fract_y
  _atom_site_fract_z
  _atom_site_occupancy
  Tl  Tl1       1.0  0.2500000191584611  0.24999997379326988  0.24999996714575953  1.0000
  Tl  Tl2       1.0  0.7499999514234984  0.7500000644931004  0.7500000502884617  1.0000
  Ir  Ir1       1.0  0.9999999815641847  0.9999999787264019  0.9999999819569209  1.0000
  F   F1        1.0  0.22035290491008783  0.22035292221997857  0.7796471043628662  1.0000
  F   F2        1.0  0.7796471134109979  0.7796470986607222  0.22035289948370143  1.0000
  F   F3        1.0  0.7796470861146375  0.22035293035650216  0.2203529373570441  1.0000
  F   F4        1.0  0.22035297771774903  0.7796470305713359  0.7796470831847501  1.0000
  F   F5        1.0  0.2203528817363877  0.779647116320431  0.2203528894211896  1.0000
  F   F6        1.0  0.7796470807052506  0.2203529026263042  0.7796470912226292  1.0000
