data_image0
_chemical_formula_structural       Tl2IrI6
_chemical_formula_sum              "Tl2 Ir1 I6"
_cell_length_a       7.794484817259642
_cell_length_b       7.794484986607203
_cell_length_c       7.794484731306187
_cell_angle_alpha    60.00000250797316
_cell_angle_beta     59.99999919592489
_cell_angle_gamma    60.00000036280106

_space_group_name_H-M_alt    "P 1"
_space_group_IT_number       1

loop_
  _space_group_symop_operation_xyz
  'x, y, z'

loop_
  _atom_site_type_symbol
  _atom_site_label
  _atom_site_symmetry_multiplicity
  _atom_site_fract_x
  _atom_site_fract_y
  _atom_site_fract_z
  _atom_site_occupancy
  Tl  Tl1       1.0  0.24999999971816456  0.24999996785640244  0.2500000108385689  1.0000
  Tl  Tl2       1.0  0.7500000180074102  0.7500000025608978  0.7499999761593208  1.0000
  Ir  Ir1       1.0  0.9999998934086343  1.7755653200625627e-07  2.5446602797806404e-07  1.0000
  I   I1        1.0  0.24402213840347944  0.24402209784768775  0.7559779181010807  1.0000
  I   I2        1.0  0.7559778159799392  0.7559778537140546  0.24402217157767156  1.0000
  I   I3        1.0  0.7559781096165223  0.24402195097203325  0.24402191449595242  1.0000
  I   I4        1.0  0.24402215590127083  0.7559777916072413  0.7559778559685266  1.0000
  I   I5        1.0  0.24402221827666457  0.755977884784426  0.24402203415535273  1.0000
  I   I6        1.0  0.7559776498061358  0.2440222679032895  0.7559778608341714  1.0000
