data_image0
_chemical_formula_structural       Tl2InCl6
_chemical_formula_sum              "Tl2 In1 Cl6"
_cell_length_a       7.352630025074043
_cell_length_b       7.352629957098995
_cell_length_c       7.3526302165815185
_cell_angle_alpha    59.99999839450403
_cell_angle_beta     59.999999069193585
_cell_angle_gamma    59.99999984510874

_space_group_name_H-M_alt    "P 1"
_space_group_IT_number       1

loop_
  _space_group_symop_operation_xyz
  'x, y, z'

loop_
  _atom_site_type_symbol
  _atom_site_label
  _atom_site_symmetry_multiplicity
  _atom_site_fract_x
  _atom_site_fract_y
  _atom_site_fract_z
  _atom_site_occupancy
  Tl  Tl1       1.0  0.24999998459911596  0.24999999480490778  0.25000001093206525  1.0000
  Tl  Tl2       1.0  0.7499999943434942  0.7499999994062359  0.750000017267884  1.0000
  In  In1       1.0  0.999999986437453  0.999999970016976  0.9999999864112901  1.0000
  Cl  Cl1       1.0  0.24391285592738238  0.24391278223071255  0.7560871437292228  1.0000
  Cl  Cl2       1.0  0.7560872307264068  0.7560872186433265  0.24391278784202103  1.0000
  Cl  Cl3       1.0  0.7560870429408014  0.24391290891769465  0.24391291918950794  1.0000
  Cl  Cl4       1.0  0.24391284551664666  0.7560871635824548  0.7560871463898421  1.0000
  Cl  Cl5       1.0  0.24391290451132308  0.7560870960316494  0.24391288933930447  1.0000
  Cl  Cl6       1.0  0.7560871512259483  0.2439128515392356  0.7560871197032709  1.0000
