data_image0
_chemical_formula_structural       Tl2IrCl6
_chemical_formula_sum              "Tl2 Ir1 Cl6"
_cell_length_a       7.126782407494619
_cell_length_b       7.126782482035552
_cell_length_c       7.126782574178308
_cell_angle_alpha    60.00000278052802
_cell_angle_beta     59.9999988754074
_cell_angle_gamma    60.000000948656876

_space_group_name_H-M_alt    "P 1"
_space_group_IT_number       1

loop_
  _space_group_symop_operation_xyz
  'x, y, z'

loop_
  _atom_site_type_symbol
  _atom_site_label
  _atom_site_symmetry_multiplicity
  _atom_site_fract_x
  _atom_site_fract_y
  _atom_site_fract_z
  _atom_site_occupancy
  Tl  Tl1       1.0  0.249999999382157  0.25000006749633075  0.24999999762455846  1.0000
  Tl  Tl2       1.0  0.7499999812759726  0.7500000392305217  0.75000001278027  1.0000
  Ir  Ir1       1.0  0.9999999091352779  6.358487808906063e-08  3.0477816455571275e-08  1.0000
  Cl  Cl1       1.0  0.23328014454140952  0.23328021788911096  0.7667196941454228  1.0000
  Cl  Cl2       1.0  0.7667199172769462  0.7667197960381809  0.23328005688226086  1.0000
  Cl  Cl3       1.0  0.7667198571751667  0.23328013994849828  0.23328008419996266  1.0000
  Cl  Cl4       1.0  0.23328004728459567  0.7667198842898663  0.7667200265956575  1.0000
  Cl  Cl5       1.0  0.23328030599796643  0.7667196339014062  0.2332802464290388  1.0000
  Cl  Cl6       1.0  0.7667198438238136  0.23328015490106122  0.7667198608066724  1.0000
