data_image0
_chemical_formula_structural       Tl2IrBr6
_chemical_formula_sum              "Tl2 Ir1 Br6"
_cell_length_a       7.386984543587603
_cell_length_b       7.386984642663094
_cell_length_c       7.38698512063098
_cell_angle_alpha    59.9999986203885
_cell_angle_beta     60.00000114524167
_cell_angle_gamma    60.00000369324022

_space_group_name_H-M_alt    "P 1"
_space_group_IT_number       1

loop_
  _space_group_symop_operation_xyz
  'x, y, z'

loop_
  _atom_site_type_symbol
  _atom_site_label
  _atom_site_symmetry_multiplicity
  _atom_site_fract_x
  _atom_site_fract_y
  _atom_site_fract_z
  _atom_site_occupancy
  Tl  Tl1       1.0  0.2500000099475125  0.24999999933019418  0.2500000227541429  1.0000
  Tl  Tl2       1.0  0.7499999964636106  0.7499999996485585  0.7499999866541811  1.0000
  Ir  Ir1       1.0  0.9999996258722379  0.9999998093326588  1.4837804713323677e-07  1.0000
  Br  Br1       1.0  0.23960161142753905  0.239601530767742  0.7603984261176798  1.0000
  Br  Br2       1.0  0.760398601395872  0.7603986555623915  0.2396014148371939  1.0000
  Br  Br3       1.0  0.760398366394221  0.2396016451626618  0.23960162861904394  1.0000
  Br  Br4       1.0  0.23960164566806236  0.7603984400308815  0.7603983348563054  1.0000
  Br  Br5       1.0  0.23960164567480274  0.7603984047449768  0.23960160156492158  1.0000
  Br  Br6       1.0  0.7603984919005405  0.23960151962482812  0.7603984404837207  1.0000
