data_image0
_chemical_formula_structural       Tl2InBr6
_chemical_formula_sum              "Tl2 In1 Br6"
_cell_length_a       7.606563228188989
_cell_length_b       7.606563385180201
_cell_length_c       7.606563284547563
_cell_angle_alpha    60.00000111766682
_cell_angle_beta     60.00000032643531
_cell_angle_gamma    60.00000237436442

_space_group_name_H-M_alt    "P 1"
_space_group_IT_number       1

loop_
  _space_group_symop_operation_xyz
  'x, y, z'

loop_
  _atom_site_type_symbol
  _atom_site_label
  _atom_site_symmetry_multiplicity
  _atom_site_fract_x
  _atom_site_fract_y
  _atom_site_fract_z
  _atom_site_occupancy
  Tl  Tl1       1.0  0.24999999541420487  0.25000000993446625  0.24999998887417665  1.0000
  Tl  Tl2       1.0  0.7500000103785534  0.7499999847201548  0.7500000033892654  1.0000
  In  In1       1.0  0.9999999466689187  3.703266404343413e-08  0.9999999647656216  1.0000
  Br  Br1       1.0  0.25065072069687533  0.2506508135060088  0.7493492254689562  1.0000
  Br  Br2       1.0  0.7493492630146813  0.7493492246217406  0.250650749525252  1.0000
  Br  Br3       1.0  0.749349177991808  0.25065078472616814  0.2506508514577318  1.0000
  Br  Br4       1.0  0.2506508138782099  0.7493491970475258  0.7493491436903107  1.0000
  Br  Br5       1.0  0.25065080906093695  0.7493492119913584  0.2506508503072448  1.0000
  Br  Br6       1.0  0.7493492690001582  0.25065073435978813  0.7493492246288651  1.0000
