data_image0
_chemical_formula_structural       Tl2MoBr6
_chemical_formula_sum              "Tl2 Mo1 Br6"
_cell_length_a       7.48595491300095
_cell_length_b       7.485955016382302
_cell_length_c       7.485955056442088
_cell_angle_alpha    59.99999863878311
_cell_angle_beta     59.999998891957055
_cell_angle_gamma    60.00000098791542

_space_group_name_H-M_alt    "P 1"
_space_group_IT_number       1

loop_
  _space_group_symop_operation_xyz
  'x, y, z'

loop_
  _atom_site_type_symbol
  _atom_site_label
  _atom_site_symmetry_multiplicity
  _atom_site_fract_x
  _atom_site_fract_y
  _atom_site_fract_z
  _atom_site_occupancy
  Tl  Tl1       1.0  0.2500000070257699  0.24999999886434252  0.24999998881593202  1.0000
  Tl  Tl2       1.0  0.7499999860518404  0.7499999998651404  0.7500000143845121  1.0000
  Mo  Mo1       1.0  0.999999953476724  0.9999999590985749  7.176488390630825e-08  1.0000
  Br  Br1       1.0  0.24274534209049575  0.24274533352675942  0.7572546676392733  1.0000
  Br  Br2       1.0  0.757254629205129  0.7572546750190648  0.2427453402081579  1.0000
  Br  Br3       1.0  0.7572546254130356  0.24274538198923412  0.24274539237722992  1.0000
  Br  Br4       1.0  0.24274541175784475  0.7572546232844773  0.757254594855309  1.0000
  Br  Br5       1.0  0.24274540033316097  0.7572546325416216  0.2427453648576703  1.0000
  Br  Br6       1.0  0.7572546442694634  0.24274538745660287  0.757254583244207  1.0000
