data_image0
_chemical_formula_structural       Tl2MnCl6
_chemical_formula_sum              "Tl2 Mn1 Cl6"
_cell_length_a       7.165798573356695
_cell_length_b       7.165799092767406
_cell_length_c       7.165798977437844
_cell_angle_alpha    59.99999986865435
_cell_angle_beta     59.999998342566144
_cell_angle_gamma    59.99999983850266

_space_group_name_H-M_alt    "P 1"
_space_group_IT_number       1

loop_
  _space_group_symop_operation_xyz
  'x, y, z'

loop_
  _atom_site_type_symbol
  _atom_site_label
  _atom_site_symmetry_multiplicity
  _atom_site_fract_x
  _atom_site_fract_y
  _atom_site_fract_z
  _atom_site_occupancy
  Tl  Tl1       1.0  0.24999997709093383  0.2500000095006687  0.2500000018352365  1.0000
  Tl  Tl2       1.0  0.7499999901631235  0.7499999823548681  0.750000024253438  1.0000
  Mn  Mn1       1.0  3.04379747118864e-08  0.9999999811993138  3.604688978237218e-08  1.0000
  Cl  Cl1       1.0  0.22706239516788698  0.2270624805166251  0.7729375715017502  1.0000
  Cl  Cl2       1.0  0.772937526151298  0.7729376104697994  0.22706244054857655  1.0000
  Cl  Cl3       1.0  0.7729375025423082  0.22706249015551683  0.22706244804094317  1.0000
  Cl  Cl4       1.0  0.22706251930403187  0.7729375119549398  0.7729374158409751  1.0000
  Cl  Cl5       1.0  0.2270625001430916  0.772937537001077  0.22706242501271068  1.0000
  Cl  Cl6       1.0  0.7729375758738738  0.22706238477917579  0.7729376222021686  1.0000
