data_image0
_chemical_formula_structural       Tl2MnF6
_chemical_formula_sum              "Tl2 Mn1 F6"
_cell_length_a       6.158756445720369
_cell_length_b       6.158756263068989
_cell_length_c       6.158756430645925
_cell_angle_alpha    59.999999775173166
_cell_angle_beta     59.999998619715804
_cell_angle_gamma    60.000001286346546

_space_group_name_H-M_alt    "P 1"
_space_group_IT_number       1

loop_
  _space_group_symop_operation_xyz
  'x, y, z'

loop_
  _atom_site_type_symbol
  _atom_site_label
  _atom_site_symmetry_multiplicity
  _atom_site_fract_x
  _atom_site_fract_y
  _atom_site_fract_z
  _atom_site_occupancy
  Tl  Tl1       1.0  0.250000029786786  0.24999998827778572  0.2500000389532208  1.0000
  Tl  Tl2       1.0  0.7499999681357213  0.7499999966513295  0.7499998628013839  1.0000
  Mn  Mn1       1.0  0.9999999650399187  0.9999999980113761  6.231437217866063e-08  1.0000
  F   F1        1.0  0.21268496543499552  0.2126848543092965  0.7873150416721655  1.0000
  F   F2        1.0  0.7873150079449861  0.787315041131752  0.2126849414533014  1.0000
  F   F3        1.0  0.7873149609855049  0.21268506319148858  0.21268499056813595  1.0000
  F   F4        1.0  0.21268494330276774  0.7873151126455018  0.7873150216726831  1.0000
  F   F5        1.0  0.21268508151734938  0.7873149877450475  0.2126850065304735  1.0000
  F   F6        1.0  0.7873150621366416  0.21268492559362012  0.7873150189003482  1.0000
