data_image0
_chemical_formula_structural       Tl2MgCl6
_chemical_formula_sum              "Tl2 Mg1 Cl6"
_cell_length_a       7.2906437407869005
_cell_length_b       7.290643489232293
_cell_length_c       7.290644103628289
_cell_angle_alpha    60.00000024203167
_cell_angle_beta     59.99999737724299
_cell_angle_gamma    60.000000381931436

_space_group_name_H-M_alt    "P 1"
_space_group_IT_number       1

loop_
  _space_group_symop_operation_xyz
  'x, y, z'

loop_
  _atom_site_type_symbol
  _atom_site_label
  _atom_site_symmetry_multiplicity
  _atom_site_fract_x
  _atom_site_fract_y
  _atom_site_fract_z
  _atom_site_occupancy
  Tl  Tl1       1.0  0.2500000323498417  0.24999996547270542  0.2499999992328227  1.0000
  Tl  Tl2       1.0  0.7499999813022438  0.7499999585738875  0.7499999627712836  1.0000
  Mg  Mg1       1.0  2.561272300590329e-08  1.3439088252077503e-08  1.4764617582949586e-08  1.0000
  Cl  Cl1       1.0  0.24131487526114573  0.24131442366097913  0.758685475860166  1.0000
  Cl  Cl2       1.0  0.7586851981118842  0.7586854970258534  0.2413147364023953  1.0000
  Cl  Cl3       1.0  0.7586855280911219  0.2413146581268205  0.2413144372184685  1.0000
  Cl  Cl4       1.0  0.2413146059909213  0.758685484304931  0.7586853512632209  1.0000
  Cl  Cl5       1.0  0.24131444028701732  0.7586854075104006  0.24131456997135345  1.0000
  Cl  Cl6       1.0  0.7586852988523359  0.24131459885059248  0.7586854579562625  1.0000
