data_image0
_chemical_formula_structural       Tl2MgI6
_chemical_formula_sum              "Tl2 Mg1 I6"
_cell_length_a       8.014340443030303
_cell_length_b       8.014340467102336
_cell_length_c       8.014340440460401
_cell_angle_alpha    60.000000062397085
_cell_angle_beta     60.0000003052784
_cell_angle_gamma    59.99999962376109

_space_group_name_H-M_alt    "P 1"
_space_group_IT_number       1

loop_
  _space_group_symop_operation_xyz
  'x, y, z'

loop_
  _atom_site_type_symbol
  _atom_site_label
  _atom_site_symmetry_multiplicity
  _atom_site_fract_x
  _atom_site_fract_y
  _atom_site_fract_z
  _atom_site_occupancy
  Tl  Tl1       1.0  0.2499999983174904  0.24999999995791689  0.2500000037959666  1.0000
  Tl  Tl2       1.0  0.7499999944430737  0.7500000014019425  0.749999999648633  1.0000
  Mg  Mg1       1.0  2.5672077120989618e-08  1.3753725324448414e-08  0.9999999752960456  1.0000
  I   I1        1.0  0.25666586606166436  0.25666585981006673  0.7433341387337662  1.0000
  I   I2        1.0  0.7433341196847281  0.743334106401383  0.25666588579212396  1.0000
  I   I3        1.0  0.7433341228886057  0.25666588186069095  0.2566658677089731  1.0000
  I   I4        1.0  0.2566658716473513  0.7433341271401269  0.7433341410095573  1.0000
  I   I5        1.0  0.25666586780918665  0.7433341386418069  0.25666585686502363  1.0000
  I   I6        1.0  0.7433341363903225  0.2566658673026276  0.7433341323289995  1.0000
