data_image0
_chemical_formula_structural       Tl2MnBr6
_chemical_formula_sum              "Tl2 Mn1 Br6"
_cell_length_a       7.4500678149909
_cell_length_b       7.450068408136056
_cell_length_c       7.450067837198093
_cell_angle_alpha    60.00000073901562
_cell_angle_beta     60.00000065197681
_cell_angle_gamma    59.99999093572479

_space_group_name_H-M_alt    "P 1"
_space_group_IT_number       1

loop_
  _space_group_symop_operation_xyz
  'x, y, z'

loop_
  _atom_site_type_symbol
  _atom_site_label
  _atom_site_symmetry_multiplicity
  _atom_site_fract_x
  _atom_site_fract_y
  _atom_site_fract_z
  _atom_site_occupancy
  Tl  Tl1       1.0  0.2499999863463421  0.25000001517122206  0.2500000149034726  1.0000
  Tl  Tl2       1.0  0.7499999996673905  0.749999946877396  0.7499999797554964  1.0000
  Mn  Mn1       1.0  2.134939103610099e-07  2.104240053369875e-07  3.099184841157706e-08  1.0000
  Br  Br1       1.0  0.22732600483139864  0.22732611932025587  0.7726739767722074  1.0000
  Br  Br2       1.0  0.7726736537142656  0.7726736487437406  0.22732638062560132  1.0000
  Br  Br3       1.0  0.7726738168381463  0.22732627057916713  0.22732586768911348  1.0000
  Br  Br4       1.0  0.22732627015400966  0.7726737605148308  0.772673817798921  1.0000
  Br  Br5       1.0  0.22732624795731443  0.7726737682333589  0.22732602837579113  1.0000
  Br  Br6       1.0  0.7726738272774866  0.22732625628488426  0.7726738756728645  1.0000
