data_image0
_chemical_formula_structural       Tl2MoF6
_chemical_formula_sum              "Tl2 Mo1 F6"
_cell_length_a       6.326579098123005
_cell_length_b       6.326579101384027
_cell_length_c       6.326579025256158
_cell_angle_alpha    59.99999956363477
_cell_angle_beta     59.99999874019576
_cell_angle_gamma    59.99999922541668

_space_group_name_H-M_alt    "P 1"
_space_group_IT_number       1

loop_
  _space_group_symop_operation_xyz
  'x, y, z'

loop_
  _atom_site_type_symbol
  _atom_site_label
  _atom_site_symmetry_multiplicity
  _atom_site_fract_x
  _atom_site_fract_y
  _atom_site_fract_z
  _atom_site_occupancy
  Tl  Tl1       1.0  0.249999950931242  0.24999998859036004  0.2500000567598462  1.0000
  Tl  Tl2       1.0  0.7500000635536023  0.7499999522199742  0.7499998693541184  1.0000
  Mo  Mo1       1.0  0.9999999915005048  3.097395543563757e-08  5.672999161295667e-08  1.0000
  F   F1        1.0  0.2248506208099828  0.22485067605055323  0.775149307016943  1.0000
  F   F2        1.0  0.7751493123524901  0.7751493499381592  0.22485065510421234  1.0000
  F   F3        1.0  0.7751493471646027  0.22485064763069143  0.2248507049978359  1.0000
  F   F4        1.0  0.224850638614299  0.7751493628710426  0.7751493318159445  1.0000
  F   F5        1.0  0.22485066464860126  0.7751493065882682  0.22485072013071986  1.0000
  F   F6        1.0  0.7751493780233415  0.22485071940044335  0.7751492915574821  1.0000
