data_image0
_chemical_formula_structural       Tl2MoCl6
_chemical_formula_sum              "Tl2 Mo1 Cl6"
_cell_length_a       7.180179877457962
_cell_length_b       7.180179901827899
_cell_length_c       7.180180201758912
_cell_angle_alpha    59.99999940985217
_cell_angle_beta     59.99999862819895
_cell_angle_gamma    60.00000215069132

_space_group_name_H-M_alt    "P 1"
_space_group_IT_number       1

loop_
  _space_group_symop_operation_xyz
  'x, y, z'

loop_
  _atom_site_type_symbol
  _atom_site_label
  _atom_site_symmetry_multiplicity
  _atom_site_fract_x
  _atom_site_fract_y
  _atom_site_fract_z
  _atom_site_occupancy
  Tl  Tl1       1.0  0.25000000165935643  0.249999961711946  0.2500000087768635  1.0000
  Tl  Tl2       1.0  0.7499999533518842  0.7500000062426705  0.7500000305865033  1.0000
  Mo  Mo1       1.0  0.9999999266287392  0.9999997714321719  2.9859814988110966e-07  1.0000
  Cl  Cl1       1.0  0.2366286367236024  0.23662863510344  0.7633713710468247  1.0000
  Cl  Cl2       1.0  0.7633715176653388  0.7633715597132796  0.23662846633842335  1.0000
  Cl  Cl3       1.0  0.7633713606510134  0.23662863143860233  0.23662861028669038  1.0000
  Cl  Cl4       1.0  0.23662868800800807  0.7633713450446667  0.7633713153159383  1.0000
  Cl  Cl5       1.0  0.23662864533521888  0.7633713456780106  0.2366286357731446  1.0000
  Cl  Cl6       1.0  0.7633712741483503  0.23662871438602712  0.7633712986995992  1.0000
