data_image0
_chemical_formula_structural       Tl2MgBr6
_chemical_formula_sum              "Tl2 Mg1 Br6"
_cell_length_a       7.529105665693017
_cell_length_b       7.529105721371694
_cell_length_c       7.5291054624132725
_cell_angle_alpha    60.000002254059886
_cell_angle_beta     60.00000130282584
_cell_angle_gamma    60.000001231639736

_space_group_name_H-M_alt    "P 1"
_space_group_IT_number       1

loop_
  _space_group_symop_operation_xyz
  'x, y, z'

loop_
  _atom_site_type_symbol
  _atom_site_label
  _atom_site_symmetry_multiplicity
  _atom_site_fract_x
  _atom_site_fract_y
  _atom_site_fract_z
  _atom_site_occupancy
  Tl  Tl1       1.0  0.24999998630893225  0.2500000087036424  0.24999999990392652  1.0000
  Tl  Tl2       1.0  0.7499999974700458  0.7499999886972791  0.7500000310232756  1.0000
  Mg  Mg1       1.0  0.999999978002649  0.9999999739731134  0.9999999429931976  1.0000
  Br  Br1       1.0  0.2506038112566242  0.2506038347523416  0.7493961808933269  1.0000
  Br  Br2       1.0  0.749396114474902  0.749396230969155  0.2506038223182705  1.0000
  Br  Br3       1.0  0.7493962018962037  0.2506037867341388  0.25060380471528143  1.0000
  Br  Br4       1.0  0.2506037767236389  0.7493962399470291  0.7493961915723221  1.0000
  Br  Br5       1.0  0.2506039129446933  0.749396183980069  0.2506038342506265  1.0000
  Br  Br6       1.0  0.7493962078101627  0.2506037613670809  0.7493961914045352  1.0000
