data_image0
_chemical_formula_structural       Tl2MgF6
_chemical_formula_sum              "Tl2 Mg1 F6"
_cell_length_a       5.578330725410751
_cell_length_b       5.578331375891893
_cell_length_c       5.578330678572245
_cell_angle_alpha    60.00000190024694
_cell_angle_beta     60.00000045903973
_cell_angle_gamma    60.00000171451408

_space_group_name_H-M_alt    "P 1"
_space_group_IT_number       1

loop_
  _space_group_symop_operation_xyz
  'x, y, z'

loop_
  _atom_site_type_symbol
  _atom_site_label
  _atom_site_symmetry_multiplicity
  _atom_site_fract_x
  _atom_site_fract_y
  _atom_site_fract_z
  _atom_site_occupancy
  Tl  Tl1       1.0  0.24999972174899657  0.24999997709456556  0.25000006257157276  1.0000
  Tl  Tl2       1.0  0.7499998297699194  0.7500000366695888  0.7500000752432565  1.0000
  Mg  Mg1       1.0  3.4206599571501154e-08  1.5368777659601704e-08  0.9999999823829151  1.0000
  F   F1        1.0  0.24678064029486482  0.24678032362927793  0.753219596925768  1.0000
  F   F2        1.0  0.7532196259754123  0.7532194771675077  0.2467803634957605  1.0000
  F   F3        1.0  0.7532194420767871  0.24678039774286334  0.24678057456803895  1.0000
  F   F4        1.0  0.24678060351679898  0.7532196862785537  0.7532193886398829  1.0000
  F   F5        1.0  0.2467804918806684  0.7532195216175154  0.24678042111625628  1.0000
  F   F6        1.0  0.7532195834028734  0.24678059753253576  0.7532195742178056  1.0000
