data_image0
_chemical_formula_structural       Tl2MnI6
_chemical_formula_sum              "Tl2 Mn1 I6"
_cell_length_a       7.841270819814535
_cell_length_b       7.841271344486183
_cell_length_c       7.841271465531607
_cell_angle_alpha    59.999997772249344
_cell_angle_beta     60.00000070388032
_cell_angle_gamma    60.00000610891084

_space_group_name_H-M_alt    "P 1"
_space_group_IT_number       1

loop_
  _space_group_symop_operation_xyz
  'x, y, z'

loop_
  _atom_site_type_symbol
  _atom_site_label
  _atom_site_symmetry_multiplicity
  _atom_site_fract_x
  _atom_site_fract_y
  _atom_site_fract_z
  _atom_site_occupancy
  Tl  Tl1       1.0  0.2499999734202265  0.25000009941848583  0.2500000531809782  1.0000
  Tl  Tl2       1.0  0.7500000292837927  0.7499999093370762  0.7499999143489556  1.0000
  Mn  Mn1       1.0  0.9999999953142391  1.405728984477233e-08  3.99498535032454e-08  1.0000
  I   I1        1.0  0.2452026452542104  0.24520275722263543  0.7547971851739227  1.0000
  I   I2        1.0  0.7547973491502088  0.7547972234183449  0.2452027291461131  1.0000
  I   I3        1.0  0.7547972423179984  0.24520285011853754  0.24520266536564983  1.0000
  I   I4        1.0  0.24520273820779342  0.7547971633227842  0.7547973887040232  1.0000
  I   I5        1.0  0.24520266279444144  0.7547974516175329  0.2452027927006372  1.0000
  I   I6        1.0  0.7547973659109496  0.24520253214728757  0.7547972495668819  1.0000
