data_image0
_chemical_formula_structural       Tl2MoI6
_chemical_formula_sum              "Tl2 Mo1 I6"
_cell_length_a       7.954970111073909
_cell_length_b       7.95497012663932
_cell_length_c       7.954970169773189
_cell_angle_alpha    59.99999997914575
_cell_angle_beta     59.99999957376672
_cell_angle_gamma    60.0000008930357

_space_group_name_H-M_alt    "P 1"
_space_group_IT_number       1

loop_
  _space_group_symop_operation_xyz
  'x, y, z'

loop_
  _atom_site_type_symbol
  _atom_site_label
  _atom_site_symmetry_multiplicity
  _atom_site_fract_x
  _atom_site_fract_y
  _atom_site_fract_z
  _atom_site_occupancy
  Tl  Tl1       1.0  0.250000003181728  0.25000000020043667  0.2500000014212221  1.0000
  Tl  Tl2       1.0  0.7499999969944686  0.7499999990617128  0.749999999995141  1.0000
  Mo  Mo1       1.0  0.9999999852203866  1.3856373460358825e-08  1.1775301644514288e-08  1.0000
  I   I1        1.0  0.2479825818866913  0.2479825811690417  0.7520174184563648  1.0000
  I   I2        1.0  0.7520174223070462  0.7520174103951226  0.24798258228606895  1.0000
  I   I3        1.0  0.7520174013804244  0.24798260440114278  0.24798258750755686  1.0000
  I   I4        1.0  0.2479826046900073  0.7520173902422156  0.7520174032144783  1.0000
  I   I5        1.0  0.247982607484181  0.7520173889895899  0.24798260100153602  1.0000
  I   I6        1.0  0.7520173955951076  0.2479826102725596  0.7520173951920537  1.0000
