data_image0
_chemical_formula_structural       Tl2NbF6
_chemical_formula_sum              "Tl2 Nb1 F6"
_cell_length_a       6.246741685492283
_cell_length_b       6.246741187166503
_cell_length_c       6.246741544617414
_cell_angle_alpha    59.99999950805798
_cell_angle_beta     60.000000505414434
_cell_angle_gamma    59.9999993405724

_space_group_name_H-M_alt    "P 1"
_space_group_IT_number       1

loop_
  _space_group_symop_operation_xyz
  'x, y, z'

loop_
  _atom_site_type_symbol
  _atom_site_label
  _atom_site_symmetry_multiplicity
  _atom_site_fract_x
  _atom_site_fract_y
  _atom_site_fract_z
  _atom_site_occupancy
  Tl  Tl1       1.0  0.25000001523854465  0.24999997570035573  0.2500000335674953  1.0000
  Tl  Tl2       1.0  0.7500000015921983  0.7500000761077386  0.7500000498617042  1.0000
  Nb  Nb1       1.0  0.9999999980393859  5.881842481175345e-09  9.245228092571194e-09  1.0000
  F   F1        1.0  0.227491433644677  0.2274913791383558  0.7725086076709455  1.0000
  F   F2        1.0  0.7725085287599358  0.7725085864027164  0.22749147726894148  1.0000
  F   F3        1.0  0.7725086163250905  0.2274913698368686  0.22749134041069027  1.0000
  F   F4        1.0  0.22749133832995727  0.7725086466801679  0.7725085964500641  1.0000
  F   F5        1.0  0.22749140121886552  0.772508606159174  0.2274913525724308  1.0000
  F   F6        1.0  0.7725086704705938  0.22749134761821235  0.7725085555401076  1.0000
