data_image0
_chemical_formula_structural       Tl2NiI6
_chemical_formula_sum              "Tl2 Ni1 I6"
_cell_length_a       7.634542856052075
_cell_length_b       7.63454291729164
_cell_length_c       7.6345426739864735
_cell_angle_alpha    59.9999989824759
_cell_angle_beta     60.0000018935573
_cell_angle_gamma    59.999999694053486

_space_group_name_H-M_alt    "P 1"
_space_group_IT_number       1

loop_
  _space_group_symop_operation_xyz
  'x, y, z'

loop_
  _atom_site_type_symbol
  _atom_site_label
  _atom_site_symmetry_multiplicity
  _atom_site_fract_x
  _atom_site_fract_y
  _atom_site_fract_z
  _atom_site_occupancy
  Tl  Tl1       1.0  0.2499999777168865  0.25000002788128517  0.24999999838729042  1.0000
  Tl  Tl2       1.0  0.7500000262684375  0.7499999857867352  0.7500000093200702  1.0000
  Ni  Ni1       1.0  0.9999999871060168  0.9999999887704929  6.969453592105384e-08  1.0000
  I   I1        1.0  0.25108484164352046  0.25108498641700566  0.748915062655133  1.0000
  I   I2        1.0  0.7489151866173028  0.7489150497100274  0.2510848614325085  1.0000
  I   I3        1.0  0.7489150747631496  0.25108492935243387  0.25108485692915167  1.0000
  I   I4        1.0  0.2510849242732601  0.7489150265638442  0.7489151546219788  1.0000
  I   I5        1.0  0.25108491644834197  0.7489150515633828  0.25108484600237896  1.0000
  I   I6        1.0  0.7489150573793593  0.2510849572919931  0.7489151503737196  1.0000
