data_image0
_chemical_formula_structural       Tl2NiCl6
_chemical_formula_sum              "Tl2 Ni1 Cl6"
_cell_length_a       7.041124829026758
_cell_length_b       7.0411232824952705
_cell_length_c       7.041124474295322
_cell_angle_alpha    59.99999132212188
_cell_angle_beta     60.00000012624472
_cell_angle_gamma    59.99999058855473

_space_group_name_H-M_alt    "P 1"
_space_group_IT_number       1

loop_
  _space_group_symop_operation_xyz
  'x, y, z'

loop_
  _atom_site_type_symbol
  _atom_site_label
  _atom_site_symmetry_multiplicity
  _atom_site_fract_x
  _atom_site_fract_y
  _atom_site_fract_z
  _atom_site_occupancy
  Tl  Tl1       1.0  0.25000005307509826  0.24999993913922988  0.2500000452788454  1.0000
  Tl  Tl2       1.0  0.7499999846755281  0.7500000557178382  0.7500000542533721  1.0000
  Ni  Ni1       1.0  5.650312561710941e-09  0.999999904332054  2.0975523180976027e-07  1.0000
  Cl  Cl1       1.0  0.23482465205105782  0.23482466726128853  0.7651754593569724  1.0000
  Cl  Cl2       1.0  0.7651752149159047  0.7651752249701693  0.23482489333855755  1.0000
  Cl  Cl3       1.0  0.7651752948844305  0.23482449398853747  0.23482467480668048  1.0000
  Cl  Cl4       1.0  0.23482478219645894  0.7651752156041328  0.7651752338222894  1.0000
  Cl  Cl5       1.0  0.2348246786140798  0.7651758659142861  0.23482420417897626  1.0000
  Cl  Cl6       1.0  0.7651753585649615  0.23482461771900257  0.7651752351241967  1.0000
