data_image0
_chemical_formula_structural       Tl2NCl6
_chemical_formula_sum              "Tl2 N1 Cl6"
_cell_length_a       7.387483450315373
_cell_length_b       7.387483109864426
_cell_length_c       7.387483581502954
_cell_angle_alpha    60.000005582667406
_cell_angle_beta     60.00000369697993
_cell_angle_gamma    59.99999777337726

_space_group_name_H-M_alt    "P 1"
_space_group_IT_number       1

loop_
  _space_group_symop_operation_xyz
  'x, y, z'

loop_
  _atom_site_type_symbol
  _atom_site_label
  _atom_site_symmetry_multiplicity
  _atom_site_fract_x
  _atom_site_fract_y
  _atom_site_fract_z
  _atom_site_occupancy
  Tl  Tl1       1.0  0.24999995938524514  0.2500001315982614  0.24999989988179247  1.0000
  Tl  Tl2       1.0  0.7499999220894359  0.7499997847005502  0.7500002480392284  1.0000
  N   N1        1.0  0.9999992605146871  2.8183697962145827e-07  0.9999991147776899  1.0000
  Cl  Cl1       1.0  0.20741674281453157  0.20741654571031853  0.7925833391171372  1.0000
  Cl  Cl2       1.0  0.7925838227856555  0.7925834236401346  0.2074165160192262  1.0000
  Cl  Cl3       1.0  0.7925835539902204  0.2074166235790274  0.2074162216594739  1.0000
  Cl  Cl4       1.0  0.20741620906632943  0.7925836010826567  0.7925839896651768  1.0000
  Cl  Cl5       1.0  0.20741666691051416  0.7925832959131034  0.20741666221898591  1.0000
  Cl  Cl6       1.0  0.7925838985544686  0.2074162705762507  0.7925841010160609  1.0000
