data_image0
_chemical_formula_structural       Tl2NF6
_chemical_formula_sum              "Tl2 N1 F6"
_cell_length_a       5.5795304236611605
_cell_length_b       5.57953039506782
_cell_length_c       5.579530404425732
_cell_angle_alpha    60.00000117739396
_cell_angle_beta     60.00000000508013
_cell_angle_gamma    60.00000125648065

_space_group_name_H-M_alt    "P 1"
_space_group_IT_number       1

loop_
  _space_group_symop_operation_xyz
  'x, y, z'

loop_
  _atom_site_type_symbol
  _atom_site_label
  _atom_site_symmetry_multiplicity
  _atom_site_fract_x
  _atom_site_fract_y
  _atom_site_fract_z
  _atom_site_occupancy
  Tl  Tl1       1.0  0.2499999929872454  0.2500000026538578  0.249999982399149  1.0000
  Tl  Tl2       1.0  0.7500000206034109  0.749999994791167  0.7500000100292302  1.0000
  N   N1        1.0  0.9999999895268121  6.585204036602079e-09  1.4489850650969119e-08  1.0000
  F   F1        1.0  0.2173405566736313  0.21734048865634137  0.782659498102808  1.0000
  F   F2        1.0  0.7826594052433917  0.7826593968402156  0.21734056179849656  1.0000
  F   F3        1.0  0.7826594985061567  0.21734052891801572  0.2173404553940731  1.0000
  F   F4        1.0  0.21734050128640217  0.782659540964252  0.7826595005456719  1.0000
  F   F5        1.0  0.21734054141082584  0.7826594845389957  0.21734046544864005  1.0000
  F   F6        1.0  0.7826595055218473  0.21734053705177697  0.7826594910667949  1.0000
