data_image0
_chemical_formula_structural       Tl2NbCl6
_chemical_formula_sum              "Tl2 Nb1 Cl6"
_cell_length_a       7.204788012065596
_cell_length_b       7.204788212111186
_cell_length_c       7.204788049284973
_cell_angle_alpha    59.99999784595762
_cell_angle_beta     59.99999800928053
_cell_angle_gamma    60.0000014990563

_space_group_name_H-M_alt    "P 1"
_space_group_IT_number       1

loop_
  _space_group_symop_operation_xyz
  'x, y, z'

loop_
  _atom_site_type_symbol
  _atom_site_label
  _atom_site_symmetry_multiplicity
  _atom_site_fract_x
  _atom_site_fract_y
  _atom_site_fract_z
  _atom_site_occupancy
  Tl  Tl1       1.0  0.2500000434523791  0.2499998763211623  0.25000013880959265  1.0000
  Tl  Tl2       1.0  0.7500000820597631  0.7500000046422945  0.7499999126864126  1.0000
  Nb  Nb1       1.0  0.9999999194935568  0.999999991500484  0.9999997918931903  1.0000
  Cl  Cl1       1.0  0.23766035709599725  0.23766031370160287  0.762339725618431  1.0000
  Cl  Cl2       1.0  0.7623395866793912  0.7623396845552289  0.23766039418637636  1.0000
  Cl  Cl3       1.0  0.7623395646828245  0.23766043368547865  0.23766040949894413  1.0000
  Cl  Cl4       1.0  0.23766032838710316  0.7623397022635823  0.7623396487689204  1.0000
  Cl  Cl5       1.0  0.23766044992112684  0.7623396598173172  0.23766033009271934  1.0000
  Cl  Cl6       1.0  0.7623396732577606  0.23766034353923302  0.7623396488816708  1.0000
