data_image0
_chemical_formula_structural       Tl2NbI6
_chemical_formula_sum              "Tl2 Nb1 I6"
_cell_length_a       8.122310758701207
_cell_length_b       8.122310673930292
_cell_length_c       8.122310816226737
_cell_angle_alpha    60.00000133611065
_cell_angle_beta     60.000000678112954
_cell_angle_gamma    60.000001247075204

_space_group_name_H-M_alt    "P 1"
_space_group_IT_number       1

loop_
  _space_group_symop_operation_xyz
  'x, y, z'

loop_
  _atom_site_type_symbol
  _atom_site_label
  _atom_site_symmetry_multiplicity
  _atom_site_fract_x
  _atom_site_fract_y
  _atom_site_fract_z
  _atom_site_occupancy
  Tl  Tl1       1.0  0.25000001172930825  0.25000001861042465  0.24999994485209626  1.0000
  Tl  Tl2       1.0  0.7500000084650593  0.7499999909925487  0.7499999936053415  1.0000
  Nb  Nb1       1.0  0.9999999777563784  0.9999999984921183  0.9999997853392347  1.0000
  I   I1        1.0  0.2440132330579807  0.24401321921272448  0.7559867709262345  1.0000
  I   I2        1.0  0.7559867835317695  0.7559868054690233  0.2440131974982499  1.0000
  I   I3        1.0  0.7559867406561571  0.2440132333214967  0.24401329048402876  1.0000
  I   I4        1.0  0.24401312519532184  0.755986868261999  0.7559868564440403  1.0000
  I   I5        1.0  0.24401328442631265  0.7559867005819074  0.24401333317289936  1.0000
  I   I6        1.0  0.7559868227345738  0.24401317180422877  0.7559868323226785  1.0000
