data_image0
_chemical_formula_structural       Tl2NiBr6
_chemical_formula_sum              "Tl2 Ni1 Br6"
_cell_length_a       7.217989277210547
_cell_length_b       7.2179892036320945
_cell_length_c       7.217989543819917
_cell_angle_alpha    60.00000065969216
_cell_angle_beta     59.9999983616072
_cell_angle_gamma    60.000001913243985

_space_group_name_H-M_alt    "P 1"
_space_group_IT_number       1

loop_
  _space_group_symop_operation_xyz
  'x, y, z'

loop_
  _atom_site_type_symbol
  _atom_site_label
  _atom_site_symmetry_multiplicity
  _atom_site_fract_x
  _atom_site_fract_y
  _atom_site_fract_z
  _atom_site_occupancy
  Tl  Tl1       1.0  0.2499999816707862  0.2500000343835297  0.2500000089675837  1.0000
  Tl  Tl2       1.0  0.7500000073889591  0.7499999640133925  0.7499999904699706  1.0000
  Ni  Ni1       1.0  0.9999998735224086  5.090388832843339e-09  3.045288123113718e-07  1.0000
  Br  Br1       1.0  0.24010379679067304  0.24010380925272173  0.759896206646507  1.0000
  Br  Br2       1.0  0.7598963450691035  0.7598962298672859  0.24010369741491638  1.0000
  Br  Br3       1.0  0.7598962504388601  0.24010370564444886  0.24010375989852437  1.0000
  Br  Br4       1.0  0.24010387177481604  0.759896133253738  0.7598961959089083  1.0000
  Br  Br5       1.0  0.2401037697373943  0.7598962347436394  0.24010371280170448  1.0000
  Br  Br6       1.0  0.759896089578662  0.2401038841257259  0.7598961388744685  1.0000
