data_image0
_chemical_formula_structural       Tl2NiF6
_chemical_formula_sum              "Tl2 Ni1 F6"
_cell_length_a       5.660104051799248
_cell_length_b       5.6601037846525495
_cell_length_c       5.660104035598161
_cell_angle_alpha    59.999999201443
_cell_angle_beta     60.000000988995446
_cell_angle_gamma    59.99999936070578

_space_group_name_H-M_alt    "P 1"
_space_group_IT_number       1

loop_
  _space_group_symop_operation_xyz
  'x, y, z'

loop_
  _atom_site_type_symbol
  _atom_site_label
  _atom_site_symmetry_multiplicity
  _atom_site_fract_x
  _atom_site_fract_y
  _atom_site_fract_z
  _atom_site_occupancy
  Tl  Tl1       1.0  0.25000001073602707  0.2500000421341235  0.24999999103969386  1.0000
  Tl  Tl2       1.0  0.7499999900278443  0.7500000203751632  0.7500000101210113  1.0000
  Ni  Ni1       1.0  1.6632056382531992e-07  0.9999998009285094  0.9999998803355612  1.0000
  F   F1        1.0  0.23195218255796557  0.2319521211013051  0.7680478075180641  1.0000
  F   F2        1.0  0.7680478705476698  0.7680479067868529  0.23195209291122101  1.0000
  F   F3        1.0  0.7680477774530973  0.23195217419269873  0.23195226214909226  1.0000
  F   F4        1.0  0.2319520357869572  0.768048022473462  0.7680478699334504  1.0000
  F   F5        1.0  0.23195211745191016  0.7680479098702596  0.23195214565716105  1.0000
  F   F6        1.0  0.7680478736703175  0.23195201631833232  0.7680479143506966  1.0000
