data_image0
_chemical_formula_structural       Tl2NCl6
_chemical_formula_sum              "Tl2 N1 Cl6"
_cell_length_a       7.384135759309774
_cell_length_b       7.384136570898652
_cell_length_c       7.384137163269344
_cell_angle_alpha    60.00000094564227
_cell_angle_beta     59.99999439507659
_cell_angle_gamma    59.9999940712073

_space_group_name_H-M_alt    "P 1"
_space_group_IT_number       1

loop_
  _space_group_symop_operation_xyz
  'x, y, z'

loop_
  _atom_site_type_symbol
  _atom_site_label
  _atom_site_symmetry_multiplicity
  _atom_site_fract_x
  _atom_site_fract_y
  _atom_site_fract_z
  _atom_site_occupancy
  Tl  Tl1       1.0  0.24999994041541793  0.24999999152422697  0.25000011638678454  1.0000
  Tl  Tl2       1.0  0.7500000498884231  0.7499998750556738  0.749999886446987  1.0000
  N   N1        1.0  0.9999996811341195  7.463775677263289e-08  1.3971936901265816e-07  1.0000
  Cl  Cl1       1.0  0.20749947402408406  0.20749915617515965  0.7925007426372811  1.0000
  Cl  Cl2       1.0  0.7925006354071945  0.7925008596801955  0.20749925058645105  1.0000
  Cl  Cl3       1.0  0.7925009249972684  0.2074988959898198  0.20749912919693864  1.0000
  Cl  Cl4       1.0  0.2074996782432563  0.7925005907669185  0.7925008071874765  1.0000
  Cl  Cl5       1.0  0.20749884977517902  0.7925013048358838  0.2074988506802181  1.0000
  Cl  Cl6       1.0  0.79250087158354  0.20749916216311337  0.7925010812143868  1.0000
