data_image0
_chemical_formula_structural       Tl2NbBr6
_chemical_formula_sum              "Tl2 Nb1 Br6"
_cell_length_a       7.573312970259713
_cell_length_b       7.573312920259597
_cell_length_c       7.573313347636252
_cell_angle_alpha    59.99999809968959
_cell_angle_beta     59.9999992113538
_cell_angle_gamma    60.000002498579164

_space_group_name_H-M_alt    "P 1"
_space_group_IT_number       1

loop_
  _space_group_symop_operation_xyz
  'x, y, z'

loop_
  _atom_site_type_symbol
  _atom_site_label
  _atom_site_symmetry_multiplicity
  _atom_site_fract_x
  _atom_site_fract_y
  _atom_site_fract_z
  _atom_site_occupancy
  Tl  Tl1       1.0  0.25000000578874054  0.25000001269549166  0.24999998785335772  1.0000
  Tl  Tl2       1.0  0.7499999796504918  0.7499999636959588  0.750000034137882  1.0000
  Nb  Nb1       1.0  0.9999998940242889  9.379673058321481e-08  2.067942445548569e-07  1.0000
  Br  Br1       1.0  0.24129266010171735  0.24129259270215972  0.7587073622124585  1.0000
  Br  Br2       1.0  0.7587073489637388  0.7587073173847024  0.24129269960392785  1.0000
  Br  Br3       1.0  0.758707287958499  0.2412927365700669  0.2412927256918831  1.0000
  Br  Br4       1.0  0.2412929145743281  0.7587071557277679  0.7587070832320805  1.0000
  Br  Br5       1.0  0.24129276905386862  0.7587072449334687  0.2412927723639862  1.0000
  Br  Br6       1.0  0.7587071315386921  0.24129288994211828  0.7587071216991251  1.0000
