data_image0
_chemical_formula_structural       Tl2NF6
_chemical_formula_sum              "Tl2 N1 F6"
_cell_length_a       5.579949209846458
_cell_length_b       5.57994898424391
_cell_length_c       5.5799491117914375
_cell_angle_alpha    59.999997787245306
_cell_angle_beta     59.999998829106445
_cell_angle_gamma    59.99999612983507

_space_group_name_H-M_alt    "P 1"
_space_group_IT_number       1

loop_
  _space_group_symop_operation_xyz
  'x, y, z'

loop_
  _atom_site_type_symbol
  _atom_site_label
  _atom_site_symmetry_multiplicity
  _atom_site_fract_x
  _atom_site_fract_y
  _atom_site_fract_z
  _atom_site_occupancy
  Tl  Tl1       1.0  0.2500000239485918  0.24999999273792595  0.2499999791611194  1.0000
  Tl  Tl2       1.0  0.7500000264235217  0.7500000089424262  0.7499999985940924  1.0000
  N   N1        1.0  0.9999999959867796  0.9999999934152898  5.298965457333339e-09  1.0000
  F   F1        1.0  0.21732069159656306  0.2173206376434913  0.7826792993225499  1.0000
  F   F2        1.0  0.7826792338992706  0.7826795462138484  0.2173206157318179  1.0000
  F   F3        1.0  0.782679464738299  0.2173204702298902  0.2173205758806786  1.0000
  F   F4        1.0  0.21732042066840665  0.7826795731536303  0.7826794975561442  1.0000
  F   F5        1.0  0.21732063050222067  0.7826793460860533  0.21732057425488205  1.0000
  F   F6        1.0  0.7826795239268964  0.2173204800020217  0.7826795217059949  1.0000
