data_image0
_chemical_formula_structural       Tl2PtF6
_chemical_formula_sum              "Tl2 Pt1 F6"
_cell_length_a       6.239929692441504
_cell_length_b       6.239930049543482
_cell_length_c       6.239930035175954
_cell_angle_alpha    59.99999799164425
_cell_angle_beta     59.9999991858443
_cell_angle_gamma    59.999999058565926

_space_group_name_H-M_alt    "P 1"
_space_group_IT_number       1

loop_
  _space_group_symop_operation_xyz
  'x, y, z'

loop_
  _atom_site_type_symbol
  _atom_site_label
  _atom_site_symmetry_multiplicity
  _atom_site_fract_x
  _atom_site_fract_y
  _atom_site_fract_z
  _atom_site_occupancy
  Tl  Tl1       1.0  0.25000000767083974  0.24999998701815274  0.2500000186266413  1.0000
  Tl  Tl2       1.0  0.7499999718526964  0.7499999590917104  0.7499998628874649  1.0000
  Pt  Pt1       1.0  0.9999999755874535  5.1031608941221705e-08  5.9214526415591406e-09  1.0000
  F   F1        1.0  0.22379901350784426  0.22379906758255963  0.776201032117053  1.0000
  F   F2        1.0  0.7762010147444959  0.7762009432981837  0.22379908752231126  1.0000
  F   F3        1.0  0.7762010319227506  0.22379899784923776  0.22379907729065088  1.0000
  F   F4        1.0  0.22379906124794566  0.7762009404096014  0.7762009772894601  1.0000
  F   F5        1.0  0.22379889369640732  0.7762010654706579  0.22379896508741035  1.0000
  F   F6        1.0  0.7762010101039953  0.2237990023299636  0.7762009944055513  1.0000
