data_image0
_chemical_formula_structural       Tl2PtI6
_chemical_formula_sum              "Tl2 Pt1 I6"
_cell_length_a       7.802136054056801
_cell_length_b       7.802135827907643
_cell_length_c       7.802135905124427
_cell_angle_alpha    60.00000114507398
_cell_angle_beta     60.00000005425223
_cell_angle_gamma    59.99999891327699

_space_group_name_H-M_alt    "P 1"
_space_group_IT_number       1

loop_
  _space_group_symop_operation_xyz
  'x, y, z'

loop_
  _atom_site_type_symbol
  _atom_site_label
  _atom_site_symmetry_multiplicity
  _atom_site_fract_x
  _atom_site_fract_y
  _atom_site_fract_z
  _atom_site_occupancy
  Tl  Tl1       1.0  0.25000002247808095  0.2500000006524548  0.24999998338931934  1.0000
  Tl  Tl2       1.0  0.7499999582594216  0.7500000098061459  0.7500000264649846  1.0000
  Pt  Pt1       1.0  6.297990191919494e-08  8.633657277583003e-08  0.9999999138064606  1.0000
  I   I1        1.0  0.2462362137954535  0.2462362252841174  0.7537638276106502  1.0000
  I   I2        1.0  0.7537637212884307  0.7537636956983993  0.24623630620331785  1.0000
  I   I3        1.0  0.7537638941739773  0.24623617755018218  0.24623618797775576  1.0000
  I   I4        1.0  0.24623616652865754  0.7537637528508663  0.7537637783449465  1.0000
  I   I5        1.0  0.24623619995426696  0.7537638390272826  0.24623623784480778  1.0000
  I   I6        1.0  0.7537637706618961  0.24623621067521498  0.7537637395044137  1.0000
