data_image0
_chemical_formula_structural       Tl2PBr6
_chemical_formula_sum              "Tl2 P1 Br6"
_cell_length_a       7.409262305721649
_cell_length_b       7.409262225890755
_cell_length_c       7.409262355876181
_cell_angle_alpha    60.0000012764137
_cell_angle_beta     60.00000029007437
_cell_angle_gamma    60.000000667112346

_space_group_name_H-M_alt    "P 1"
_space_group_IT_number       1

loop_
  _space_group_symop_operation_xyz
  'x, y, z'

loop_
  _atom_site_type_symbol
  _atom_site_label
  _atom_site_symmetry_multiplicity
  _atom_site_fract_x
  _atom_site_fract_y
  _atom_site_fract_z
  _atom_site_occupancy
  Tl  Tl1       1.0  0.25000001295643526  0.24999999366145387  0.24999998120364614  1.0000
  Tl  Tl2       1.0  0.7499999966964721  0.7499999859433374  0.7500000189036723  1.0000
  P   P1        1.0  0.9999999813281912  1.0744445826853148e-07  2.98450877785098e-08  1.0000
  Br  Br1       1.0  0.24440014440640423  0.2444001650639148  0.7555998650465999  1.0000
  Br  Br2       1.0  0.7555998518659371  0.7555998079289107  0.24440018014819667  1.0000
  Br  Br3       1.0  0.7555998536136342  0.24440017101836167  0.24440011447709414  1.0000
  Br  Br4       1.0  0.24440014769599855  0.7555998102394201  0.7555998295902374  1.0000
  Br  Br5       1.0  0.24440018296818852  0.7555997806363673  0.2444001947172512  1.0000
  Br  Br6       1.0  0.755599832761908  0.2444001526846571  0.7555997836538326  1.0000
