data_image0
_chemical_formula_structural       Tl2PdI6
_chemical_formula_sum              "Tl2 Pd1 I6"
_cell_length_a       7.725104164448431
_cell_length_b       7.725103969975854
_cell_length_c       7.725103978375953
_cell_angle_alpha    59.999999571240345
_cell_angle_beta     60.000000440175135
_cell_angle_gamma    59.99999828047979

_space_group_name_H-M_alt    "P 1"
_space_group_IT_number       1

loop_
  _space_group_symop_operation_xyz
  'x, y, z'

loop_
  _atom_site_type_symbol
  _atom_site_label
  _atom_site_symmetry_multiplicity
  _atom_site_fract_x
  _atom_site_fract_y
  _atom_site_fract_z
  _atom_site_occupancy
  Tl  Tl1       1.0  0.25000002375436525  0.24999994849944301  0.2500000112678392  1.0000
  Tl  Tl2       1.0  0.7499999924771165  0.7500000056246325  0.749999993133355  1.0000
  Pd  Pd1       1.0  3.6241738309708985e-09  0.9999999667064122  3.425192143791592e-08  1.0000
  I   I1        1.0  0.2505141338048841  0.25051413152269913  0.7494859036675833  1.0000
  I   I2        1.0  0.749485845358607  0.7494859113842774  0.25051410853266043  1.0000
  I   I3        1.0  0.7494859822280616  0.25051413999256034  0.2505140866448977  1.0000
  I   I4        1.0  0.25051403827517627  0.7494858775478728  0.749485869672949  1.0000
  I   I5        1.0  0.2505140220526576  0.749485882268114  0.2505141825135732  1.0000
  I   I6        1.0  0.7494859515852381  0.2505141368577286  0.7494858132724922  1.0000
