data_image0
_chemical_formula_structural       Tl2PbBr6
_chemical_formula_sum              "Tl2 Pb1 Br6"
_cell_length_a       7.668965560041445
_cell_length_b       7.66896556080923
_cell_length_c       7.668965521875644
_cell_angle_alpha    60.00000118357368
_cell_angle_beta     60.00000007454749
_cell_angle_gamma    60.00000309112926

_space_group_name_H-M_alt    "P 1"
_space_group_IT_number       1

loop_
  _space_group_symop_operation_xyz
  'x, y, z'

loop_
  _atom_site_type_symbol
  _atom_site_label
  _atom_site_symmetry_multiplicity
  _atom_site_fract_x
  _atom_site_fract_y
  _atom_site_fract_z
  _atom_site_occupancy
  Tl  Tl1       1.0  0.25000003182215697  0.2500000136904575  0.24999993583955238  1.0000
  Tl  Tl2       1.0  0.7499999893095627  0.7499999755937811  0.7500000458988559  1.0000
  Pb  Pb1       1.0  0.999999992017612  0.9999998658507907  1.1670428682183105e-07  1.0000
  Br  Br1       1.0  0.2617639308538198  0.2617638963194246  0.7382361388541284  1.0000
  Br  Br2       1.0  0.7382361605568295  0.7382361712185227  0.26176386641472366  1.0000
  Br  Br3       1.0  0.7382361344542355  0.26176383665067765  0.261763911402133  1.0000
  Br  Br4       1.0  0.2617639309972057  0.7382360919470147  0.7382360654801189  1.0000
  Br  Br5       1.0  0.26176384505394323  0.738236161358646  0.2617638455716313  1.0000
  Br  Br6       1.0  0.7382359798044026  0.2617639876270261  0.7382360749113818  1.0000
