data_image0
_chemical_formula_structural       Tl2PtBr6
_chemical_formula_sum              "Tl2 Pt1 Br6"
_cell_length_a       7.334535890778501
_cell_length_b       7.334535870455333
_cell_length_c       7.334535852450434
_cell_angle_alpha    60.00000006874599
_cell_angle_beta     60.00000013471134
_cell_angle_gamma    59.999999630336454

_space_group_name_H-M_alt    "P 1"
_space_group_IT_number       1

loop_
  _space_group_symop_operation_xyz
  'x, y, z'

loop_
  _atom_site_type_symbol
  _atom_site_label
  _atom_site_symmetry_multiplicity
  _atom_site_fract_x
  _atom_site_fract_y
  _atom_site_fract_z
  _atom_site_occupancy
  Tl  Tl1       1.0  0.2499999980888833  0.24999999834318112  0.25000000083958923  1.0000
  Tl  Tl2       1.0  0.7499999973198175  0.7500000000390419  0.7500000012142601  1.0000
  Pt  Pt1       1.0  1.0924834973618795e-08  5.009498417849996e-09  0.9999999715816414  1.0000
  Br  Br1       1.0  0.2410501278457006  0.2410501202664122  0.75894987688106  1.0000
  Br  Br2       1.0  0.7589498651619426  0.7589498664269811  0.24105013630797137  1.0000
  Br  Br3       1.0  0.7589498819087779  0.2410501180307908  0.24105011929748513  1.0000
  Br  Br4       1.0  0.24105011488325756  0.7589498903704291  0.7589498893259136  1.0000
  Br  Br5       1.0  0.2410501183270423  0.7589498853594085  0.2410501188880272  1.0000
  Br  Br6       1.0  0.7589498854144373  0.24105011636247992  0.7589498882369023  1.0000
