data_image0
_chemical_formula_structural       Tl2PbCl6
_chemical_formula_sum              "Tl2 Pb1 Cl6"
_cell_length_a       7.377360883562959
_cell_length_b       7.377361045527704
_cell_length_c       7.377361144254107
_cell_angle_alpha    59.99999978683804
_cell_angle_beta     60.00000093336313
_cell_angle_gamma    59.99999958388533

_space_group_name_H-M_alt    "P 1"
_space_group_IT_number       1

loop_
  _space_group_symop_operation_xyz
  'x, y, z'

loop_
  _atom_site_type_symbol
  _atom_site_label
  _atom_site_symmetry_multiplicity
  _atom_site_fract_x
  _atom_site_fract_y
  _atom_site_fract_z
  _atom_site_occupancy
  Tl  Tl1       1.0  0.24999999513301144  0.24999999971378672  0.24999999991645372  1.0000
  Tl  Tl2       1.0  0.7499999938733324  0.749999992500802  0.7500000110319756  1.0000
  Pb  Pb1       1.0  8.828293170786058e-08  2.158181313022001e-08  0.9999999532006184  1.0000
  Cl  Cl1       1.0  0.2478348104266853  0.24783481153409823  0.7521652036544602  1.0000
  Cl  Cl2       1.0  0.7521651565882802  0.752165157438537  0.2478348583760976  1.0000
  Cl  Cl3       1.0  0.7521652248948731  0.2478347583419204  0.2478348335251691  1.0000
  Cl  Cl4       1.0  0.24783476705196986  0.7521652438335054  0.7521651669060974  1.0000
  Cl  Cl5       1.0  0.24783470185745363  0.7521652946717353  0.24783475332154858  1.0000
  Cl  Cl6       1.0  0.7521652617259961  0.24783471746452815  0.752165226490034  1.0000
