data_image0
_chemical_formula_structural       Tl2PtCl6
_chemical_formula_sum              "Tl2 Pt1 Cl6"
_cell_length_a       7.108460745925196
_cell_length_b       7.108460634652562
_cell_length_c       7.1084611445842825
_cell_angle_alpha    59.99999762391945
_cell_angle_beta     59.99999898222456
_cell_angle_gamma    60.00000270621795

_space_group_name_H-M_alt    "P 1"
_space_group_IT_number       1

loop_
  _space_group_symop_operation_xyz
  'x, y, z'

loop_
  _atom_site_type_symbol
  _atom_site_label
  _atom_site_symmetry_multiplicity
  _atom_site_fract_x
  _atom_site_fract_y
  _atom_site_fract_z
  _atom_site_occupancy
  Tl  Tl1       1.0  0.2499999999867806  0.25000004948615545  0.25000002575455377  1.0000
  Tl  Tl2       1.0  0.7500000023590236  0.7499999658268615  0.7500000407704417  1.0000
  Pt  Pt1       1.0  0.9999999802284579  0.9999999862164821  0.9999998662526866  1.0000
  Cl  Cl1       1.0  0.23383028653317617  0.23383020828377393  0.7661697449803924  1.0000
  Cl  Cl2       1.0  0.7661698482422917  0.7661698190898274  0.23383020850302688  1.0000
  Cl  Cl3       1.0  0.7661694872277909  0.23383042129969936  0.23383047096179974  1.0000
  Cl  Cl4       1.0  0.23383033546521909  0.7661696164115245  0.766169637614358  1.0000
  Cl  Cl5       1.0  0.2338304106093416  0.7661695578117289  0.23383037854907507  1.0000
  Cl  Cl6       1.0  0.7661696509385364  0.23383036273960897  0.7661696255695917  1.0000
