data_image0
_chemical_formula_structural       Tl2PdCl6
_chemical_formula_sum              "Tl2 Pd1 Cl6"
_cell_length_a       7.055896672684724
_cell_length_b       7.055896352103953
_cell_length_c       7.055897117068468
_cell_angle_alpha    59.999996827925045
_cell_angle_beta     59.99999770537004
_cell_angle_gamma    60.000000469324235

_space_group_name_H-M_alt    "P 1"
_space_group_IT_number       1

loop_
  _space_group_symop_operation_xyz
  'x, y, z'

loop_
  _atom_site_type_symbol
  _atom_site_label
  _atom_site_symmetry_multiplicity
  _atom_site_fract_x
  _atom_site_fract_y
  _atom_site_fract_z
  _atom_site_occupancy
  Tl  Tl1       1.0  0.25000000605207734  0.24999999559674824  0.24999998275983623  1.0000
  Tl  Tl2       1.0  0.7499999916743506  0.7500000024122199  0.7500000316584443  1.0000
  Pd  Pd1       1.0  1.6282804799368793e-08  0.9999999756991491  0.9999999303118032  1.0000
  Cl  Cl1       1.0  0.23640174667639724  0.23640166511042687  0.763598328898862  1.0000
  Cl  Cl2       1.0  0.7635981728949045  0.7635983120692376  0.23640173784614196  1.0000
  Cl  Cl3       1.0  0.7635981286202813  0.23640181290573342  0.2364018475190485  1.0000
  Cl  Cl4       1.0  0.2364017846346879  0.7635982666846607  0.7635982122791299  1.0000
  Cl  Cl5       1.0  0.2364018973609973  0.7635982117147551  0.2364017364740634  1.0000
  Cl  Cl6       1.0  0.7635982330385841  0.23640175157871632  0.7635982317998968  1.0000
