data_image0
_chemical_formula_structural       Tl2PF6
_chemical_formula_sum              "Tl2 P1 F6"
_cell_length_a       6.089475665217085
_cell_length_b       6.089475510448658
_cell_length_c       6.089475829935145
_cell_angle_alpha    60.00000090941247
_cell_angle_beta     59.99999971112576
_cell_angle_gamma    60.00000077814986

_space_group_name_H-M_alt    "P 1"
_space_group_IT_number       1

loop_
  _space_group_symop_operation_xyz
  'x, y, z'

loop_
  _atom_site_type_symbol
  _atom_site_label
  _atom_site_symmetry_multiplicity
  _atom_site_fract_x
  _atom_site_fract_y
  _atom_site_fract_z
  _atom_site_occupancy
  Tl  Tl1       1.0  0.2500000618876113  0.2499999363417781  0.24999994380891177  1.0000
  Tl  Tl2       1.0  0.750000057291393  0.749999977970211  0.7499999031019586  1.0000
  P   P1        1.0  0.9999999742185807  2.6146230525957517e-08  1.459772272591504e-09  1.0000
  F   F1        1.0  0.1918353779527888  0.19183538271465247  0.8081645718403507  1.0000
  F   F2        1.0  0.8081645811941051  0.8081646703734853  0.19183537273390833  1.0000
  F   F3        1.0  0.8081646334986805  0.19183534351113554  0.19183544422257626  1.0000
  F   F4        1.0  0.19183536106524407  0.8081646090145799  0.8081646511611545  1.0000
  F   F5        1.0  0.1918353282451148  0.808164690497009  0.19183541971662893  1.0000
  F   F6        1.0  0.8081646234121758  0.19183539074861208  0.8081646656040176  1.0000
