data_image0
_chemical_formula_structural       Tl2PbI6
_chemical_formula_sum              "Tl2 Pb1 I6"
_cell_length_a       8.276788276980577
_cell_length_b       8.276788233201174
_cell_length_c       8.27678806214091
_cell_angle_alpha    60.00000208205814
_cell_angle_beta     60.00000039888515
_cell_angle_gamma    59.99999863914698

_space_group_name_H-M_alt    "P 1"
_space_group_IT_number       1

loop_
  _space_group_symop_operation_xyz
  'x, y, z'

loop_
  _atom_site_type_symbol
  _atom_site_label
  _atom_site_symmetry_multiplicity
  _atom_site_fract_x
  _atom_site_fract_y
  _atom_site_fract_z
  _atom_site_occupancy
  Tl  Tl1       1.0  0.25000004186630637  0.2500001091684503  0.24999993941687848  1.0000
  Tl  Tl2       1.0  0.7499999412830214  0.7499998969026345  0.7500000520098516  1.0000
  Pb  Pb1       1.0  0.9999999968857941  0.9999999926013314  2.0460913144221028e-07  1.0000
  I   I1        1.0  0.26920596477859926  0.2692058792084257  0.7307940893230561  1.0000
  I   I2        1.0  0.7307940337314255  0.7307941017071743  0.2692059710355694  1.0000
  I   I3        1.0  0.7307940599693883  0.26920591448116576  0.26920590215256096  1.0000
  I   I4        1.0  0.26920606572271366  0.7307939569340796  0.7307939765928665  1.0000
  I   I5        1.0  0.26920598552165437  0.7307939946866304  0.2692058332638561  1.0000
  I   I6        1.0  0.7307939038290199  0.2692061504794918  0.7307940340260396  1.0000
