data_image0
_chemical_formula_structural       Tl2PI6
_chemical_formula_sum              "Tl2 P1 I6"
_cell_length_a       7.881056957517919
_cell_length_b       7.881056957588429
_cell_length_c       7.8810569411674125
_cell_angle_alpha    60.00000004976469
_cell_angle_beta     60.00000044514138
_cell_angle_gamma    59.99999962471566

_space_group_name_H-M_alt    "P 1"
_space_group_IT_number       1

loop_
  _space_group_symop_operation_xyz
  'x, y, z'

loop_
  _atom_site_type_symbol
  _atom_site_label
  _atom_site_symmetry_multiplicity
  _atom_site_fract_x
  _atom_site_fract_y
  _atom_site_fract_z
  _atom_site_occupancy
  Tl  Tl1       1.0  0.24999998911784221  0.2500000223711843  0.24999998724340114  1.0000
  Tl  Tl2       1.0  0.7500000051531622  0.7499999800875188  0.7500000091829789  1.0000
  P   P1        1.0  0.999999994139362  3.568674573709716e-17  3.925882596640697e-10  1.0000
  I   I1        1.0  0.24966604799363107  0.249666017189299  0.7503339679346751  1.0000
  I   I2        1.0  0.7503339686839008  0.7503339883774768  0.24966602461646223  1.0000
  I   I3        1.0  0.7503339794665822  0.2496660164607258  0.2496660342254868  1.0000
  I   I4        1.0  0.249666017216729  0.7503339875520136  0.7503339678309138  1.0000
  I   I5        1.0  0.24966601504351002  0.7503339883730855  0.24966602898369858  1.0000
  I   I6        1.0  0.7503339819064317  0.24966600165332717  0.750333983739146  1.0000
