data_image0
_chemical_formula_structural       Tl2PdBr6
_chemical_formula_sum              "Tl2 Pd1 Br6"
_cell_length_a       7.312576420226536
_cell_length_b       7.3125764272919405
_cell_length_c       7.312576405914489
_cell_angle_alpha    60.00000012778286
_cell_angle_beta     60.00000001534972
_cell_angle_gamma    59.999999849927356

_space_group_name_H-M_alt    "P 1"
_space_group_IT_number       1

loop_
  _space_group_symop_operation_xyz
  'x, y, z'

loop_
  _atom_site_type_symbol
  _atom_site_label
  _atom_site_symmetry_multiplicity
  _atom_site_fract_x
  _atom_site_fract_y
  _atom_site_fract_z
  _atom_site_occupancy
  Tl  Tl1       1.0  0.24999999740343307  0.25000000402102646  0.24999999884876087  1.0000
  Tl  Tl2       1.0  0.7500000002971774  0.7500000020139956  0.7500000002623994  1.0000
  Pd  Pd1       1.0  6.299810300667602e-09  2.8472403649650955e-08  0.9999999525287373  1.0000
  Br  Br1       1.0  0.2434827526081016  0.24348275652197515  0.7565172459599562  1.0000
  Br  Br2       1.0  0.7565172361928585  0.7565172193657961  0.2434827726746548  1.0000
  Br  Br3       1.0  0.7565172454650623  0.24348276005605385  0.24348276125621102  1.0000
  Br  Br4       1.0  0.2434827490774257  0.7565172459789683  0.7565172531090812  1.0000
  Br  Br5       1.0  0.24348276336556737  0.7565172323036877  0.24348277059667156  1.0000
  Br  Br6       1.0  0.7565172520878602  0.24348275363316718  0.7565172419947275  1.0000
