data_image0
_chemical_formula_structural       Tl2PdF6
_chemical_formula_sum              "Tl2 Pd1 F6"
_cell_length_a       6.12113501961287
_cell_length_b       6.121134873379245
_cell_length_c       6.121134958905978
_cell_angle_alpha    60.00000007094009
_cell_angle_beta     60.00000002516304
_cell_angle_gamma    59.999998785849094

_space_group_name_H-M_alt    "P 1"
_space_group_IT_number       1

loop_
  _space_group_symop_operation_xyz
  'x, y, z'

loop_
  _atom_site_type_symbol
  _atom_site_label
  _atom_site_symmetry_multiplicity
  _atom_site_fract_x
  _atom_site_fract_y
  _atom_site_fract_z
  _atom_site_occupancy
  Tl  Tl1       1.0  0.24999998859247394  0.24999998574261675  0.25000000192103017  1.0000
  Tl  Tl2       1.0  0.7500000135654964  0.7500000232557706  0.7499999178150979  1.0000
  Pd  Pd1       1.0  3.3975117115429275e-08  0.999999965985616  0.9999999787817417  1.0000
  F   F1        1.0  0.22729606338346578  0.22729600680743986  0.7727040455292837  1.0000
  F   F2        1.0  0.7727039777419191  0.7727039701774111  0.2272960733067161  1.0000
  F   F3        1.0  0.7727041581567979  0.22729586348048542  0.227295927706773  1.0000
  F   F4        1.0  0.2272960203925463  0.7727040294688275  0.7727040288392469  1.0000
  F   F5        1.0  0.22729583786438085  0.7727041576040362  0.2272959573068122  1.0000
  F   F6        1.0  0.7727039145412284  0.2272959894527343  0.7727040574847213  1.0000
