data_image0
_chemical_formula_structural       Tl2RhBr6
_chemical_formula_sum              "Tl2 Rh1 Br6"
_cell_length_a       7.36464848948325
_cell_length_b       7.364648613611417
_cell_length_c       7.364648427759713
_cell_angle_alpha    60.0000017597171
_cell_angle_beta     59.999999734365154
_cell_angle_gamma    59.99999872542675

_space_group_name_H-M_alt    "P 1"
_space_group_IT_number       1

loop_
  _space_group_symop_operation_xyz
  'x, y, z'

loop_
  _atom_site_type_symbol
  _atom_site_label
  _atom_site_symmetry_multiplicity
  _atom_site_fract_x
  _atom_site_fract_y
  _atom_site_fract_z
  _atom_site_occupancy
  Tl  Tl1       1.0  0.25000000441246545  0.2499999989532423  0.24999999036513224  1.0000
  Tl  Tl2       1.0  0.7500000027213476  0.7500000001857381  0.7500000127098816  1.0000
  Rh  Rh1       1.0  0.9999999696556338  1.663006462425993e-09  5.3717984010738055e-08  1.0000
  Br  Br1       1.0  0.24008041833055668  0.24008046582524087  0.7599195290470538  1.0000
  Br  Br2       1.0  0.7599196001426486  0.7599195416287641  0.2400804098872288  1.0000
  Br  Br3       1.0  0.7599196602323584  0.24008040192455002  0.24008033431324996  1.0000
  Br  Br4       1.0  0.24008040078058446  0.759919567280336  0.7599196486422173  1.0000
  Br  Br5       1.0  0.2400803837509971  0.7599195657523259  0.24008044121524463  1.0000
  Br  Br6       1.0  0.7599195681260078  0.2400804533427178  0.7599195862993321  1.0000
