data_image0
_chemical_formula_structural       Tl2RuI6
_chemical_formula_sum              "Tl2 Ru1 I6"
_cell_length_a       7.759298901920232
_cell_length_b       7.759299295699841
_cell_length_c       7.759299131906895
_cell_angle_alpha    59.99999784128643
_cell_angle_beta     60.0000021303429
_cell_angle_gamma    60.00000143690488

_space_group_name_H-M_alt    "P 1"
_space_group_IT_number       1

loop_
  _space_group_symop_operation_xyz
  'x, y, z'

loop_
  _atom_site_type_symbol
  _atom_site_label
  _atom_site_symmetry_multiplicity
  _atom_site_fract_x
  _atom_site_fract_y
  _atom_site_fract_z
  _atom_site_occupancy
  Tl  Tl1       1.0  0.25000002377710456  0.24999997989393613  0.24999999143291257  1.0000
  Tl  Tl2       1.0  0.7499999915256451  0.750000040700816  0.749999983023707  1.0000
  Ru  Ru1       1.0  0.9999999642843855  2.612829071063249e-16  0.9999999998149396  1.0000
  I   I1        1.0  0.2468066585602034  0.24680664744048794  0.7531933536712331  1.0000
  I   I2        1.0  0.7531933558862963  0.7531933400074008  0.24680665969613907  1.0000
  I   I3        1.0  0.7531932587116736  0.24680671671455648  0.2468066758193368  1.0000
  I   I4        1.0  0.24680675686188946  0.753193289674398  0.7531932875619085  1.0000
  I   I5        1.0  0.24680665158315554  0.7531933435961258  0.24680663279361634  1.0000
  I   I6        1.0  0.7531933344982134  0.24680664858702733  0.7531934181642121  1.0000
