data_image0
_chemical_formula_structural       Tl2RhF6
_chemical_formula_sum              "Tl2 Rh1 F6"
_cell_length_a       6.214348363791756
_cell_length_b       6.21434849167893
_cell_length_c       6.214348435006373
_cell_angle_alpha    59.99999840465589
_cell_angle_beta     59.999999373948555
_cell_angle_gamma    59.99999959773514

_space_group_name_H-M_alt    "P 1"
_space_group_IT_number       1

loop_
  _space_group_symop_operation_xyz
  'x, y, z'

loop_
  _atom_site_type_symbol
  _atom_site_label
  _atom_site_symmetry_multiplicity
  _atom_site_fract_x
  _atom_site_fract_y
  _atom_site_fract_z
  _atom_site_occupancy
  Tl  Tl1       1.0  0.25000000878082024  0.2500000441422373  0.25000003425662737  1.0000
  Tl  Tl2       1.0  0.7500000561690732  0.7499999649058327  0.7499999270217854  1.0000
  Rh  Rh1       1.0  0.9999999923420919  1.1825004022225056e-08  0.9999999769971228  1.0000
  F   F1        1.0  0.22327110631650424  0.22327111493276933  0.7767289187448115  1.0000
  F   F2        1.0  0.776728808351091  0.7767288822902951  0.22327120243703247  1.0000
  F   F3        1.0  0.7767288209006511  0.22327114724634753  0.22327108740035173  1.0000
  F   F4        1.0  0.22327116424345414  0.7767288893933993  0.7767288098710836  1.0000
  F   F5        1.0  0.22327113200227924  0.776728873187375  0.22327113760868444  1.0000
  F   F6        1.0  0.7767289098998535  0.22327111023985285  0.7767288898426886  1.0000
