data_image0
_chemical_formula_structural       Tl2RuCl6
_chemical_formula_sum              "Tl2 Ru1 Cl6"
_cell_length_a       7.12063008712706
_cell_length_b       7.120629816226854
_cell_length_c       7.120629577443854
_cell_angle_alpha    60.00000338373463
_cell_angle_beta     59.999999156100685
_cell_angle_gamma    60.000000181814876

_space_group_name_H-M_alt    "P 1"
_space_group_IT_number       1

loop_
  _space_group_symop_operation_xyz
  'x, y, z'

loop_
  _atom_site_type_symbol
  _atom_site_label
  _atom_site_symmetry_multiplicity
  _atom_site_fract_x
  _atom_site_fract_y
  _atom_site_fract_z
  _atom_site_occupancy
  Tl  Tl1       1.0  0.249999966352151  0.250000021837811  0.25000001273990785  1.0000
  Tl  Tl2       1.0  0.7500000182559203  0.7499999657537161  0.750000010243031  1.0000
  Ru  Ru1       1.0  8.896189849274003e-08  0.9999998985202789  0.9999997422373094  1.0000
  Cl  Cl1       1.0  0.23394330776439257  0.23394333120626704  0.7660566469160457  1.0000
  Cl  Cl2       1.0  0.7660566904715195  0.7660566787451937  0.23394329206760642  1.0000
  Cl  Cl3       1.0  0.7660566782645674  0.23394333729266814  0.23394330290669876  1.0000
  Cl  Cl4       1.0  0.23394313069617115  0.7660568756182246  0.7660568904476898  1.0000
  Cl  Cl5       1.0  0.23394340929187404  0.7660565974413285  0.23394335887267298  1.0000
  Cl  Cl6       1.0  0.7660567111085252  0.23394329899046035  0.7660567134168466  1.0000
