data_image0
_chemical_formula_structural       Tl2RhI6
_chemical_formula_sum              "Tl2 Rh1 I6"
_cell_length_a       7.793235521629292
_cell_length_b       7.793235483434462
_cell_length_c       7.793235456494175
_cell_angle_alpha    60.00000073624626
_cell_angle_beta     59.999998338524414
_cell_angle_gamma    59.99999853274168

_space_group_name_H-M_alt    "P 1"
_space_group_IT_number       1

loop_
  _space_group_symop_operation_xyz
  'x, y, z'

loop_
  _atom_site_type_symbol
  _atom_site_label
  _atom_site_symmetry_multiplicity
  _atom_site_fract_x
  _atom_site_fract_y
  _atom_site_fract_z
  _atom_site_occupancy
  Tl  Tl1       1.0  0.24999996458006607  0.24999999225035024  0.2500000283053449  1.0000
  Tl  Tl2       1.0  0.7500000206399956  0.7499999783225967  0.7499999873180945  1.0000
  Rh  Rh1       1.0  0.9999999820067097  2.184452623041421e-07  0.9999999267204615  1.0000
  I   I1        1.0  0.24413863237825958  0.24413861655648497  0.7558613786869132  1.0000
  I   I2        1.0  0.7558612904781551  0.7558612832967742  0.24413871374350693  1.0000
  I   I3        1.0  0.7558613429230471  0.24413864674035804  0.24413861936037293  1.0000
  I   I4        1.0  0.24413872138023443  0.7558612688283836  0.755861289269414  1.0000
  I   I5        1.0  0.24413878254022883  0.7558612709027043  0.24413875648275912  1.0000
  I   I6        1.0  0.7558612713450934  0.24413872481502086  0.7558612905086703  1.0000
