data_image0
_chemical_formula_structural       Tl2RhCl6
_chemical_formula_sum              "Tl2 Rh1 Cl6"
_cell_length_a       7.119966245380349
_cell_length_b       7.119966735537688
_cell_length_c       7.11996635194737
_cell_angle_alpha    60.000000983812846
_cell_angle_beta     59.99999942236129
_cell_angle_gamma    60.00000239846978

_space_group_name_H-M_alt    "P 1"
_space_group_IT_number       1

loop_
  _space_group_symop_operation_xyz
  'x, y, z'

loop_
  _atom_site_type_symbol
  _atom_site_label
  _atom_site_symmetry_multiplicity
  _atom_site_fract_x
  _atom_site_fract_y
  _atom_site_fract_z
  _atom_site_occupancy
  Tl  Tl1       1.0  0.24999997924786188  0.24999999833950093  0.2499999974669749  1.0000
  Tl  Tl2       1.0  0.7500000019429479  0.7500000018991242  0.7500000144454747  1.0000
  Rh  Rh1       1.0  4.749258488035202e-08  0.9999998623875755  2.6837558267942417e-07  1.0000
  Cl  Cl1       1.0  0.233968779488024  0.23396869354814706  0.7660312602462999  1.0000
  Cl  Cl2       1.0  0.7660314050153125  0.7660312757276849  0.23396864301926668  1.0000
  Cl  Cl3       1.0  0.7660312499877169  0.2339687028054887  0.23396879511563515  1.0000
  Cl  Cl4       1.0  0.23396869668762232  0.7660312647501861  0.766031168934966  1.0000
  Cl  Cl5       1.0  0.23396864151902405  0.7660313829299514  0.2339687198922712  1.0000
  Cl  Cl6       1.0  0.766031192168588  0.23396881168622052  0.7660311520094182  1.0000
