data_image0
_chemical_formula_structural       Tl2RuBr6
_chemical_formula_sum              "Tl2 Ru1 Br6"
_cell_length_a       7.351894300541007
_cell_length_b       7.351894515968534
_cell_length_c       7.351894583264283
_cell_angle_alpha    59.999998780439384
_cell_angle_beta     59.999999836645614
_cell_angle_gamma    60.000001143786186

_space_group_name_H-M_alt    "P 1"
_space_group_IT_number       1

loop_
  _space_group_symop_operation_xyz
  'x, y, z'

loop_
  _atom_site_type_symbol
  _atom_site_label
  _atom_site_symmetry_multiplicity
  _atom_site_fract_x
  _atom_site_fract_y
  _atom_site_fract_z
  _atom_site_occupancy
  Tl  Tl1       1.0  0.24999999233630024  0.25000001032306374  0.2500000015314438  1.0000
  Tl  Tl2       1.0  0.7500000172270467  0.7499999809924871  0.7499999931512878  1.0000
  Ru  Ru1       1.0  0.9999999599261626  0.9999999600186376  0.9999998917664968  1.0000
  Br  Br1       1.0  0.24072801576996852  0.24072797475062674  0.7592720060051789  1.0000
  Br  Br2       1.0  0.7592720051360964  0.7592720532145077  0.2407279796435315  1.0000
  Br  Br3       1.0  0.7592719317084813  0.2407280494543791  0.24072807248264172  1.0000
  Br  Br4       1.0  0.24072802543653918  0.7592720001673259  0.7592719913464363  1.0000
  Br  Br5       1.0  0.24072801675780173  0.7592719993994747  0.240728015763184  1.0000
  Br  Br6       1.0  0.7592720341179403  0.2407279669277231  0.7592720591701115  1.0000
