data_image0
_chemical_formula_structural       Tl2SbCl6
_chemical_formula_sum              "Tl2 Sb1 Cl6"
_cell_length_a       7.360113112198999
_cell_length_b       7.360113239665466
_cell_length_c       7.360113281640477
_cell_angle_alpha    59.999998898106675
_cell_angle_beta     59.99999526273682
_cell_angle_gamma    60.000004828141655

_space_group_name_H-M_alt    "P 1"
_space_group_IT_number       1

loop_
  _space_group_symop_operation_xyz
  'x, y, z'

loop_
  _atom_site_type_symbol
  _atom_site_label
  _atom_site_symmetry_multiplicity
  _atom_site_fract_x
  _atom_site_fract_y
  _atom_site_fract_z
  _atom_site_occupancy
  Tl  Tl1       1.0  0.24999997574118063  0.2500000138969872  0.2500000162125335  1.0000
  Tl  Tl2       1.0  0.7499999939559469  0.7500000250506668  0.7499999977767235  1.0000
  Sb  Sb1       1.0  3.666137714139129e-07  0.9999995873206021  0.9999984727849266  1.0000
  Cl  Cl1       1.0  0.24267771531708046  0.2426778032812019  0.757322231511456  1.0000
  Cl  Cl2       1.0  0.7573222375358787  0.7573221591210756  0.242677831889924  1.0000
  Cl  Cl3       1.0  0.757321597041554  0.24267844210369036  0.24267843672635084  1.0000
  Cl  Cl4       1.0  0.2426776628985465  0.7573223706178237  0.7573223998609172  1.0000
  Cl  Cl5       1.0  0.24267823991255003  0.757321670985679  0.24267844890339513  1.0000
  Cl  Cl6       1.0  0.7573222004190205  0.24267793032214585  0.7573221722202497  1.0000
