data_image0
_chemical_formula_structural       Tl2SeBr6
_chemical_formula_sum              "Tl2 Se1 Br6"
_cell_length_a       7.622895147420676
_cell_length_b       7.622894947801431
_cell_length_c       7.62289484151551
_cell_angle_alpha    60.00000080922991
_cell_angle_beta     60.00000023338814
_cell_angle_gamma    59.99999853132966

_space_group_name_H-M_alt    "P 1"
_space_group_IT_number       1

loop_
  _space_group_symop_operation_xyz
  'x, y, z'

loop_
  _atom_site_type_symbol
  _atom_site_label
  _atom_site_symmetry_multiplicity
  _atom_site_fract_x
  _atom_site_fract_y
  _atom_site_fract_z
  _atom_site_occupancy
  Tl  Tl1       1.0  0.24999993789086283  0.24999997326727832  0.2500000547184104  1.0000
  Tl  Tl2       1.0  0.7500000643593615  0.7500000129884782  0.749999951551556  1.0000
  Se  Se1       1.0  0.9999999988081782  0.9999999036000202  1.0914042970474664e-07  1.0000
  Br  Br1       1.0  0.24302781837279627  0.24302783278173987  0.7569721282511044  1.0000
  Br  Br2       1.0  0.7569721483497028  0.7569721100940255  0.243027832203277  1.0000
  Br  Br3       1.0  0.756972289016285  0.24302775942830762  0.24302775261551945  1.0000
  Br  Br4       1.0  0.2430277193218803  0.7569723312607608  0.7569722128240343  1.0000
  Br  Br5       1.0  0.24302773154391583  0.7569723206817732  0.24302777469198408  1.0000
  Br  Br6       1.0  0.7569722923095922  0.2430277507272991  0.756972186070708  1.0000
