data_image0
_chemical_formula_structural       Tl2SbI6
_chemical_formula_sum              "Tl2 Sb1 I6"
_cell_length_a       8.195750438500443
_cell_length_b       8.1957506289619
_cell_length_c       8.19575073114525
_cell_angle_alpha    59.99999701895955
_cell_angle_beta     60.000000245773556
_cell_angle_gamma    60.00000084996564

_space_group_name_H-M_alt    "P 1"
_space_group_IT_number       1

loop_
  _space_group_symop_operation_xyz
  'x, y, z'

loop_
  _atom_site_type_symbol
  _atom_site_label
  _atom_site_symmetry_multiplicity
  _atom_site_fract_x
  _atom_site_fract_y
  _atom_site_fract_z
  _atom_site_occupancy
  Tl  Tl1       1.0  0.25000012572638447  0.24999997299203483  0.24999993926281833  1.0000
  Tl  Tl2       1.0  0.7499998512583784  0.7500000385253515  0.7500000514778231  1.0000
  Sb  Sb1       1.0  6.733192169009594e-08  0.999999793777524  1.9878059659684888e-07  1.0000
  I   I1        1.0  0.25775093015413664  0.25775075582426177  0.7422491888112154  1.0000
  I   I2        1.0  0.7422491965160454  0.7422492377607369  0.25775079217955815  1.0000
  I   I3        1.0  0.742249074016339  0.25775099885801595  0.2577508698947047  1.0000
  I   I4        1.0  0.2577509072805933  0.742249008176272  0.7422491550954466  1.0000
  I   I5        1.0  0.2577507608778175  0.7422491982429442  0.2577508413730161  1.0000
  I   I6        1.0  0.7422490890322356  0.25775100007016316  0.7422489621084768  1.0000
