data_image0
_chemical_formula_structural       Tl2SBr6
_chemical_formula_sum              "Tl2 S1 Br6"
_cell_length_a       7.3734786554247105
_cell_length_b       7.373478361842115
_cell_length_c       7.373478484603726
_cell_angle_alpha    59.9999989444873
_cell_angle_beta     60.00000017172298
_cell_angle_gamma    59.999999403165866

_space_group_name_H-M_alt    "P 1"
_space_group_IT_number       1

loop_
  _space_group_symop_operation_xyz
  'x, y, z'

loop_
  _atom_site_type_symbol
  _atom_site_label
  _atom_site_symmetry_multiplicity
  _atom_site_fract_x
  _atom_site_fract_y
  _atom_site_fract_z
  _atom_site_occupancy
  Tl  Tl1       1.0  0.2499999754949652  0.2499999574360743  0.2500000311451231  1.0000
  Tl  Tl2       1.0  0.7500000072827008  0.7500000151554053  0.7500000209430224  1.0000
  S   S1        1.0  0.999999969993258  0.9999999584746564  0.9999999950796832  1.0000
  Br  Br1       1.0  0.2462244899204316  0.24622454618060285  0.7537755050473413  1.0000
  Br  Br2       1.0  0.7537755031841992  0.7537755692580588  0.24622446367267029  1.0000
  Br  Br3       1.0  0.7537756085191843  0.24622442239145265  0.24622449846795041  1.0000
  Br  Br4       1.0  0.2462244603108136  0.7537755269458353  0.7537754489856767  1.0000
  Br  Br5       1.0  0.24622442837406255  0.7537755802010904  0.2462245221863162  1.0000
  Br  Br6       1.0  0.7537755576143371  0.24622441564458183  0.7537754936137622  1.0000
