data_image0
_chemical_formula_structural       Tl2SrCl6
_chemical_formula_sum              "Tl2 Sr1 Cl6"
_cell_length_a       7.59717883107364
_cell_length_b       7.5971788009537695
_cell_length_c       7.597179201910167
_cell_angle_alpha    59.9999993701316
_cell_angle_beta     59.99999743633462
_cell_angle_gamma    59.999996615972826

_space_group_name_H-M_alt    "P 1"
_space_group_IT_number       1

loop_
  _space_group_symop_operation_xyz
  'x, y, z'

loop_
  _atom_site_type_symbol
  _atom_site_label
  _atom_site_symmetry_multiplicity
  _atom_site_fract_x
  _atom_site_fract_y
  _atom_site_fract_z
  _atom_site_occupancy
  Tl  Tl1       1.0  0.24999999049046717  0.25000000613907447  0.2500000005587928  1.0000
  Tl  Tl2       1.0  0.7500000316697564  0.7499999700540761  0.7499999983913298  1.0000
  Sr  Sr1       1.0  0.9999999699706509  0.9999999806547419  0.9999999904640751  1.0000
  Cl  Cl1       1.0  0.2599699826000383  0.25997007004074535  0.7400299355842568  1.0000
  Cl  Cl2       1.0  0.7400300727979262  0.7400299432308153  0.2599699847706157  1.0000
  Cl  Cl3       1.0  0.7400299347448466  0.2599700634080215  0.2599700164900039  1.0000
  Cl  Cl4       1.0  0.2599700247145764  0.7400299595361716  0.7400299799047743  1.0000
  Cl  Cl5       1.0  0.2599701287480324  0.7400299211114749  0.259970049463254  1.0000
  Cl  Cl6       1.0  0.7400298674657524  0.259970087323775  0.740030030580832  1.0000
