data_image0
_chemical_formula_structural       Tl2ScCl6
_chemical_formula_sum              "Tl2 Sc1 Cl6"
_cell_length_a       7.303088553626961
_cell_length_b       7.3030886622213576
_cell_length_c       7.303088881983425
_cell_angle_alpha    59.99999912075536
_cell_angle_beta     59.99999962352472
_cell_angle_gamma    59.999999296428506

_space_group_name_H-M_alt    "P 1"
_space_group_IT_number       1

loop_
  _space_group_symop_operation_xyz
  'x, y, z'

loop_
  _atom_site_type_symbol
  _atom_site_label
  _atom_site_symmetry_multiplicity
  _atom_site_fract_x
  _atom_site_fract_y
  _atom_site_fract_z
  _atom_site_occupancy
  Tl  Tl1       1.0  0.25000000312837134  0.24999996931486054  0.2500000063758921  1.0000
  Tl  Tl2       1.0  0.7499999764036586  0.7500000068889481  0.7500000135318933  1.0000
  Sc  Sc1       1.0  1.6304811858894348e-09  0.9999999144718185  1.6518437614230709e-07  1.0000
  Cl  Cl1       1.0  0.2406266260330462  0.2406266075277175  0.7593733824408302  1.0000
  Cl  Cl2       1.0  0.7593734090927455  0.75937341060167  0.24062659281513615  1.0000
  Cl  Cl3       1.0  0.7593734492046921  0.24062658887511582  0.24062658232105613  1.0000
  Cl  Cl4       1.0  0.2406266155950519  0.7593734208691558  0.759373317934162  1.0000
  Cl  Cl5       1.0  0.2406265383951334  0.7593734642889949  0.2406265851651574  1.0000
  Cl  Cl6       1.0  0.7593733842469296  0.24062662092131956  0.7593733498051624  1.0000
