data_image0
_chemical_formula_structural       Tl2ScF6
_chemical_formula_sum              "Tl2 Sc1 F6"
_cell_length_a       6.329968784649332
_cell_length_b       6.32996775305748
_cell_length_c       6.329968543430913
_cell_angle_alpha    60.00000022491492
_cell_angle_beta     60.00000218004166
_cell_angle_gamma    60.00000227049567

_space_group_name_H-M_alt    "P 1"
_space_group_IT_number       1

loop_
  _space_group_symop_operation_xyz
  'x, y, z'

loop_
  _atom_site_type_symbol
  _atom_site_label
  _atom_site_symmetry_multiplicity
  _atom_site_fract_x
  _atom_site_fract_y
  _atom_site_fract_z
  _atom_site_occupancy
  Tl  Tl1       1.0  0.2500000280771987  0.24999998492658893  0.2500000079324985  1.0000
  Tl  Tl2       1.0  0.7499999848595985  0.7499999683236194  0.7500002057327956  1.0000
  Sc  Sc1       1.0  0.9999999602916668  9.6741723993948e-09  0.9999999060117993  1.0000
  F   F1        1.0  0.22728670527993694  0.22728680961195533  0.7727131768226645  1.0000
  F   F2        1.0  0.7727133614970321  0.7727131900743032  0.22728668654505113  1.0000
  F   F3        1.0  0.7727131035812684  0.22728686742445617  0.22728686114694183  1.0000
  F   F4        1.0  0.22728669227480275  0.7727132773744848  0.7727131741301655  1.0000
  F   F5        1.0  0.2272868732135462  0.7727131517287252  0.22728680726703182  1.0000
  F   F6        1.0  0.7727132996441533  0.22728673767189964  0.7727131972243606  1.0000
