data_image0
_chemical_formula_structural       Tl2SbCl6
_chemical_formula_sum              "Tl2 Sb1 Cl6"
_cell_length_a       7.3598972442945385
_cell_length_b       7.359897394437011
_cell_length_c       7.359896823844849
_cell_angle_alpha    60.0000020955428
_cell_angle_beta     60.0000026954068
_cell_angle_gamma    59.99999734729667

_space_group_name_H-M_alt    "P 1"
_space_group_IT_number       1

loop_
  _space_group_symop_operation_xyz
  'x, y, z'

loop_
  _atom_site_type_symbol
  _atom_site_label
  _atom_site_symmetry_multiplicity
  _atom_site_fract_x
  _atom_site_fract_y
  _atom_site_fract_z
  _atom_site_occupancy
  Tl  Tl1       1.0  0.25000001887837997  0.24999999914747545  0.24999999815544607  1.0000
  Tl  Tl2       1.0  0.74999999378363  0.7500000024346657  0.7500000179611143  1.0000
  Sb  Sb1       1.0  0.9999999529924484  2.163302349638926e-07  4.985141250203592e-08  1.0000
  Cl  Cl1       1.0  0.24301986788404958  0.24301986902460235  0.7569801465873758  1.0000
  Cl  Cl2       1.0  0.7569800532592347  0.7569800776429458  0.24301991828897906  1.0000
  Cl  Cl3       1.0  0.7569803593474815  0.24301960373822518  0.2430196039851569  1.0000
  Cl  Cl4       1.0  0.24301978320504755  0.7569801682010476  0.7569802459719426  1.0000
  Cl  Cl5       1.0  0.2430196737637702  0.7569803522190279  0.24301965861926175  1.0000
  Cl  Cl6       1.0  0.7569802879154743  0.2430197175903433  0.7569803475163512  1.0000
