data_image0
_chemical_formula_structural       Tl2SeI6
_chemical_formula_sum              "Tl2 Se1 I6"
_cell_length_a       7.926750424698733
_cell_length_b       7.926750487528283
_cell_length_c       7.926750538848258
_cell_angle_alpha    59.99999999153638
_cell_angle_beta     59.99999832816173
_cell_angle_gamma    60.000000884759395

_space_group_name_H-M_alt    "P 1"
_space_group_IT_number       1

loop_
  _space_group_symop_operation_xyz
  'x, y, z'

loop_
  _atom_site_type_symbol
  _atom_site_label
  _atom_site_symmetry_multiplicity
  _atom_site_fract_x
  _atom_site_fract_y
  _atom_site_fract_z
  _atom_site_occupancy
  Tl  Tl1       1.0  0.2499999302245528  0.24999998180689553  0.2500001456340626  1.0000
  Tl  Tl2       1.0  0.7500000784692553  0.7500000041336553  0.7499998549053812  1.0000
  Se  Se1       1.0  0.9999999219837356  6.798343625258642e-08  7.944792340519996e-08  1.0000
  I   I1        1.0  0.25840939139041547  0.25840939893318293  0.7415906144045099  1.0000
  I   I2        1.0  0.7415906486441781  0.7415906240892426  0.25840933300033864  1.0000
  I   I3        1.0  0.7415906633859544  0.2584093596938341  0.2584094414397819  1.0000
  I   I4        1.0  0.2584093830360016  0.7415905829845296  0.7415905025737846  1.0000
  I   I5        1.0  0.258409435824761  0.7415905425932094  0.25840946762573525  1.0000
  I   I6        1.0  0.7415905497383574  0.2584094340768726  0.7415905617297979  1.0000
