data_image0
_chemical_formula_structural       Tl2SnBr6
_chemical_formula_sum              "Tl2 Sn1 Br6"
_cell_length_a       7.572108021270408
_cell_length_b       7.572107891956021
_cell_length_c       7.572107841408913
_cell_angle_alpha    60.00000144143749
_cell_angle_beta     60.00000102473628
_cell_angle_gamma    59.999998868586125

_space_group_name_H-M_alt    "P 1"
_space_group_IT_number       1

loop_
  _space_group_symop_operation_xyz
  'x, y, z'

loop_
  _atom_site_type_symbol
  _atom_site_label
  _atom_site_symmetry_multiplicity
  _atom_site_fract_x
  _atom_site_fract_y
  _atom_site_fract_z
  _atom_site_occupancy
  Tl  Tl1       1.0  0.24999999921414945  0.24999999978017398  0.24999999260245442  1.0000
  Tl  Tl2       1.0  0.749999984903786  0.7500000009579649  0.7500000190251512  1.0000
  Sn  Sn1       1.0  7.515279996875018e-08  3.073140390059505e-08  0.9999998770641779  1.0000
  Br  Br1       1.0  0.24840047451052416  0.24840044305123613  0.7515995477350569  1.0000
  Br  Br2       1.0  0.751599472316457  0.7515995140159576  0.24840048984649948  1.0000
  Br  Br3       1.0  0.7515995698205187  0.24840042016410896  0.248400452587127  1.0000
  Br  Br4       1.0  0.24840041653063835  0.7515995967484551  0.7515996132271948  1.0000
  Br  Br5       1.0  0.24840047115456934  0.751599548186513  0.24840043768005213  1.0000
  Br  Br6       1.0  0.7515995390723413  0.24840044284697096  0.7515995670660296  1.0000
