data_image0
_chemical_formula_structural       Tl2SbBr6
_chemical_formula_sum              "Tl2 Sb1 Br6"
_cell_length_a       7.6381700124128455
_cell_length_b       7.638169835476063
_cell_length_c       7.638169383786579
_cell_angle_alpha    60.00000369182399
_cell_angle_beta     60.00000303687845
_cell_angle_gamma    59.999993818567226

_space_group_name_H-M_alt    "P 1"
_space_group_IT_number       1

loop_
  _space_group_symop_operation_xyz
  'x, y, z'

loop_
  _atom_site_type_symbol
  _atom_site_label
  _atom_site_symmetry_multiplicity
  _atom_site_fract_x
  _atom_site_fract_y
  _atom_site_fract_z
  _atom_site_occupancy
  Tl  Tl1       1.0  0.24999998796352296  0.24999998204706847  0.2500000369490898  1.0000
  Tl  Tl2       1.0  0.7499999608198594  0.7500000279173226  0.7499999719942855  1.0000
  Sb  Sb1       1.0  8.940814827133974e-08  0.9999999358618352  0.9999986716047128  1.0000
  Br  Br1       1.0  0.25336048425700586  0.253360530863633  0.7466395181259016  1.0000
  Br  Br2       1.0  0.7466394202428381  0.7466394758938566  0.2533605800234048  1.0000
  Br  Br3       1.0  0.7466394767350115  0.25336055448655187  0.25336056070075735  1.0000
  Br  Br4       1.0  0.2533600221176295  0.7466400070658294  0.7466400598763968  1.0000
  Br  Br5       1.0  0.25336061162921925  0.7466394447548965  0.2533605769836235  1.0000
  Br  Br6       1.0  0.7466399458029401  0.25336004088021946  0.7466400286965367  1.0000
