data_image0
_chemical_formula_structural       Tl2SI6
_chemical_formula_sum              "Tl2 S1 I6"
_cell_length_a       7.715070725669991
_cell_length_b       7.715070763243898
_cell_length_c       7.71507076717958
_cell_angle_alpha    59.99999939285656
_cell_angle_beta     59.999999933533104
_cell_angle_gamma    60.00000207219067

_space_group_name_H-M_alt    "P 1"
_space_group_IT_number       1

loop_
  _space_group_symop_operation_xyz
  'x, y, z'

loop_
  _atom_site_type_symbol
  _atom_site_label
  _atom_site_symmetry_multiplicity
  _atom_site_fract_x
  _atom_site_fract_y
  _atom_site_fract_z
  _atom_site_occupancy
  Tl  Tl1       1.0  0.2500000093031473  0.25000001426239893  0.2499999907358747  1.0000
  Tl  Tl2       1.0  0.7499999582164993  0.749999982463309  0.7499999996272722  1.0000
  S   S1        1.0  9.935687918559505e-08  0.999999917451526  1.1084292178305845e-07  1.0000
  I   I1        1.0  0.26348899213398513  0.26348902094162285  0.7365109954667421  1.0000
  I   I2        1.0  0.7365109692329334  0.7365109583219074  0.26348903133098117  1.0000
  I   I3        1.0  0.7365110039667672  0.26348900959133487  0.26348903998101086  1.0000
  I   I4        1.0  0.26348902404009394  0.7365109807844921  0.7365109440520996  1.0000
  I   I5        1.0  0.26348898865854536  0.7365110000237094  0.26348897862111914  1.0000
  I   I6        1.0  0.7365109560762039  0.26348911893724125  0.7365109023932924  1.0000
