data_image0
_chemical_formula_structural       Tl2SF6
_chemical_formula_sum              "Tl2 S1 F6"
_cell_length_a       5.978906529611698
_cell_length_b       5.978906560002292
_cell_length_c       5.978906515828028
_cell_angle_alpha    59.999999141877026
_cell_angle_beta     59.99999923331003
_cell_angle_gamma    59.99999927270884

_space_group_name_H-M_alt    "P 1"
_space_group_IT_number       1

loop_
  _space_group_symop_operation_xyz
  'x, y, z'

loop_
  _atom_site_type_symbol
  _atom_site_label
  _atom_site_symmetry_multiplicity
  _atom_site_fract_x
  _atom_site_fract_y
  _atom_site_fract_z
  _atom_site_occupancy
  Tl  Tl1       1.0  0.25000002896880613  0.25000002946812705  0.24999996243704403  1.0000
  Tl  Tl2       1.0  0.7499999538248254  0.7499999777884631  0.750000069371568  1.0000
  S   S1        1.0  5.91102417271515e-09  0.9999999938546715  0.9999999633211261  1.0000
  F   F1        1.0  0.22105837506030168  0.22105849459837498  0.7789415910515229  1.0000
  F   F2        1.0  0.7789415633905997  0.7789415761599455  0.22105847299125475  1.0000
  F   F3        1.0  0.7789416407959382  0.22105841569728749  0.22105830874276558  1.0000
  F   F4        1.0  0.221058460666683  0.7789414788949429  0.7789415812421607  1.0000
  F   F5        1.0  0.2210584207934701  0.7789415721736784  0.22105841969361892  1.0000
  F   F6        1.0  0.7789415754020423  0.22105844122824  0.7789416541903345  1.0000
