data_image0
_chemical_formula_structural       Tl2SbF6
_chemical_formula_sum              "Tl2 Sb1 F6"
_cell_length_a       6.3588759234374646
_cell_length_b       6.358875738997861
_cell_length_c       6.3588759543303475
_cell_angle_alpha    59.999998034555915
_cell_angle_beta     60.0000007198224
_cell_angle_gamma    59.99999841900946

_space_group_name_H-M_alt    "P 1"
_space_group_IT_number       1

loop_
  _space_group_symop_operation_xyz
  'x, y, z'

loop_
  _atom_site_type_symbol
  _atom_site_label
  _atom_site_symmetry_multiplicity
  _atom_site_fract_x
  _atom_site_fract_y
  _atom_site_fract_z
  _atom_site_occupancy
  Tl  Tl1       1.0  0.2500000266998273  0.24999993337676601  0.2500000896687779  1.0000
  Tl  Tl2       1.0  0.7500000769963178  0.7499999946603407  0.7500000003063452  1.0000
  Sb  Sb1       1.0  4.200462545996281e-08  0.9999999557010785  1.0808428733982194e-07  1.0000
  F   F1        1.0  0.22553665634148828  0.22553675745918006  0.7744631682430059  1.0000
  F   F2        1.0  0.7744632243465602  0.7744633111788521  0.22553661067218472  1.0000
  F   F3        1.0  0.7744631790451413  0.22553684426395207  0.22553668173995173  1.0000
  F   F4        1.0  0.22553655647878973  0.7744634092739184  0.7744632628747641  1.0000
  F   F5        1.0  0.22553680629987263  0.774463140936468  0.225536788101924  1.0000
  F   F6        1.0  0.7744634076179152  0.22553662531327828  0.7744633245108499  1.0000
