data_image0
_chemical_formula_structural       Tl2SCl6
_chemical_formula_sum              "Tl2 S1 Cl6"
_cell_length_a       7.228497957804416
_cell_length_b       7.2284975234300965
_cell_length_c       7.228498034501109
_cell_angle_alpha    59.99999588059404
_cell_angle_beta     59.99999777365034
_cell_angle_gamma    59.99999757812498

_space_group_name_H-M_alt    "P 1"
_space_group_IT_number       1

loop_
  _space_group_symop_operation_xyz
  'x, y, z'

loop_
  _atom_site_type_symbol
  _atom_site_label
  _atom_site_symmetry_multiplicity
  _atom_site_fract_x
  _atom_site_fract_y
  _atom_site_fract_z
  _atom_site_occupancy
  Tl  Tl1       1.0  0.2500000355213866  0.24999988988497313  0.2500000280028771  1.0000
  Tl  Tl2       1.0  0.7500000270413939  0.7500000424071859  0.749999984429928  1.0000
  S   S1        1.0  1.0528918615815309e-07  0.9999997560166988  5.412951351307913e-08  1.0000
  Cl  Cl1       1.0  0.23176993526075282  0.23176988281001468  0.7682301254405411  1.0000
  Cl  Cl2       1.0  0.76822989612335  0.768230249412903  0.23176993858496844  1.0000
  Cl  Cl3       1.0  0.768230040137525  0.23176992461418888  0.231770118895951  1.0000
  Cl  Cl4       1.0  0.2317699971708788  0.7682301313639507  0.7682297599328419  1.0000
  Cl  Cl5       1.0  0.23176995812308598  0.7682302214129774  0.23177003402260316  1.0000
  Cl  Cl6       1.0  0.7682299979406819  0.23176993453054093  0.7682299267510931  1.0000
