data_image0
_chemical_formula_structural       Tl2SeCl6
_chemical_formula_sum              "Tl2 Se1 Cl6"
_cell_length_a       7.197912903122946
_cell_length_b       7.197912814036759
_cell_length_c       7.197913084492572
_cell_angle_alpha    59.99999923650698
_cell_angle_beta     59.999999832655135
_cell_angle_gamma    59.99999929706062

_space_group_name_H-M_alt    "P 1"
_space_group_IT_number       1

loop_
  _space_group_symop_operation_xyz
  'x, y, z'

loop_
  _atom_site_type_symbol
  _atom_site_label
  _atom_site_symmetry_multiplicity
  _atom_site_fract_x
  _atom_site_fract_y
  _atom_site_fract_z
  _atom_site_occupancy
  Tl  Tl1       1.0  0.2500000529025763  0.25000002750542333  0.24999995192341445  1.0000
  Tl  Tl2       1.0  0.7499999879658429  0.7499999787230738  0.7500000569451959  1.0000
  Se  Se1       1.0  0.9999997845485266  2.5522917536077967e-08  1.4358948205509494e-07  1.0000
  Cl  Cl1       1.0  0.23891516040377567  0.23891503979834192  0.7610849263505955  1.0000
  Cl  Cl2       1.0  0.7610849871853003  0.7610849783408498  0.23891505376675412  1.0000
  Cl  Cl3       1.0  0.7610849335394247  0.23891503851210819  0.23891515665231386  1.0000
  Cl  Cl4       1.0  0.238915116517817  0.7610849064613874  0.7610847518238525  1.0000
  Cl  Cl5       1.0  0.2389150641288823  0.761084971297361  0.23891510616727174  1.0000
  Cl  Cl6       1.0  0.7610849033181626  0.23891504343877515  0.7610848545792945  1.0000
