data_image0
_chemical_formula_structural       Tl2SnCl6
_chemical_formula_sum              "Tl2 Sn1 Cl6"
_cell_length_a       7.314576956223404
_cell_length_b       7.314576897980995
_cell_length_c       7.314576777065197
_cell_angle_alpha    60.00000118149521
_cell_angle_beta     60.000000618730866
_cell_angle_gamma    60.00000080271663

_space_group_name_H-M_alt    "P 1"
_space_group_IT_number       1

loop_
  _space_group_symop_operation_xyz
  'x, y, z'

loop_
  _atom_site_type_symbol
  _atom_site_label
  _atom_site_symmetry_multiplicity
  _atom_site_fract_x
  _atom_site_fract_y
  _atom_site_fract_z
  _atom_site_occupancy
  Tl  Tl1       1.0  0.24999998214871202  0.25000005223723015  0.2499999742750078  1.0000
  Tl  Tl2       1.0  0.7500000045873876  0.7499999775520463  0.7499999915370172  1.0000
  Sn  Sn1       1.0  0.9999999551116314  6.362678914164775e-08  0.9999999482496641  1.0000
  Cl  Cl1       1.0  0.23912721651435376  0.2391272391088913  0.7608727296422271  1.0000
  Cl  Cl2       1.0  0.7608728345953663  0.7608727538438222  0.23912714310754943  1.0000
  Cl  Cl3       1.0  0.7608727497357424  0.23912725855863867  0.2391271805296553  1.0000
  Cl  Cl4       1.0  0.23912719039112812  0.7608727595099143  0.7608729374893248  1.0000
  Cl  Cl5       1.0  0.23912727899506134  0.7608726766822858  0.2391272210328716  1.0000
  Cl  Cl6       1.0  0.760872783039262  0.23912721245829877  0.7608728840907683  1.0000
