data_image0
_chemical_formula_structural       Tl2SbBr6
_chemical_formula_sum              "Tl2 Sb1 Br6"
_cell_length_a       7.638810286836189
_cell_length_b       7.638810145971238
_cell_length_c       7.638810340699301
_cell_angle_alpha    59.99999976762521
_cell_angle_beta     59.99999934066016
_cell_angle_gamma    59.999998276025124

_space_group_name_H-M_alt    "P 1"
_space_group_IT_number       1

loop_
  _space_group_symop_operation_xyz
  'x, y, z'

loop_
  _atom_site_type_symbol
  _atom_site_label
  _atom_site_symmetry_multiplicity
  _atom_site_fract_x
  _atom_site_fract_y
  _atom_site_fract_z
  _atom_site_occupancy
  Tl  Tl1       1.0  0.24999996996182772  0.25000004606845233  0.25000001847034026  1.0000
  Tl  Tl2       1.0  0.7500000282533004  0.7499999554269976  0.7499999776515235  1.0000
  Sb  Sb1       1.0  1.5259801499159572e-07  0.9999999775535342  6.452555746316323e-08  1.0000
  Br  Br1       1.0  0.2532060681831457  0.2532060868845181  0.746793920110057  1.0000
  Br  Br2       1.0  0.7467938543146129  0.7467938424615814  0.25320614209054026  1.0000
  Br  Br3       1.0  0.7467939419391825  0.2532060829132731  0.25320605290898995  1.0000
  Br  Br4       1.0  0.2532060417701124  0.7467939394253227  0.7467939217167563  1.0000
  Br  Br5       1.0  0.253206025184072  0.7467939592621862  0.2532060285434531  1.0000
  Br  Br6       1.0  0.7467939133284418  0.2532061079693394  0.746793882088105  1.0000
