data_image0
_chemical_formula_structural       Tl2SbI6
_chemical_formula_sum              "Tl2 Sb1 I6"
_cell_length_a       8.191942612111148
_cell_length_b       8.191942694067649
_cell_length_c       8.19194229813836
_cell_angle_alpha    59.999999502799355
_cell_angle_beta     60.00000225248877
_cell_angle_gamma    59.99999590571615

_space_group_name_H-M_alt    "P 1"
_space_group_IT_number       1

loop_
  _space_group_symop_operation_xyz
  'x, y, z'

loop_
  _atom_site_type_symbol
  _atom_site_label
  _atom_site_symmetry_multiplicity
  _atom_site_fract_x
  _atom_site_fract_y
  _atom_site_fract_z
  _atom_site_occupancy
  Tl  Tl1       1.0  0.2499999955330132  0.2500000036659095  0.24999998498657228  1.0000
  Tl  Tl2       1.0  0.7499999857733423  0.7500000050174852  0.7500000230604087  1.0000
  Sb  Sb1       1.0  4.2843732557349403e-08  0.9999998968408312  3.137843179280812e-08  1.0000
  I   I1        1.0  0.25782121098240174  0.2578212245180515  0.7421787986222474  1.0000
  I   I2        1.0  0.7421788160136166  0.7421787781850997  0.2578211798043303  1.0000
  I   I3        1.0  0.7421787018029579  0.2578212175531242  0.25782122800266544  1.0000
  I   I4        1.0  0.25782126828310775  0.7421788374771424  0.7421787868952578  1.0000
  I   I5        1.0  0.2578211662662052  0.7421788373324446  0.2578211575146481  1.0000
  I   I6        1.0  0.7421788130320639  0.2578212027472191  0.7421788102032948  1.0000
