data_image0
_chemical_formula_structural       Tl2SeF6
_chemical_formula_sum              "Tl2 Se1 F6"
_cell_length_a       6.265703414472989
_cell_length_b       6.265703492591387
_cell_length_c       6.265703514687442
_cell_angle_alpha    60.000001317633
_cell_angle_beta     60.000001127671624
_cell_angle_gamma    60.000000986223604

_space_group_name_H-M_alt    "P 1"
_space_group_IT_number       1

loop_
  _space_group_symop_operation_xyz
  'x, y, z'

loop_
  _atom_site_type_symbol
  _atom_site_label
  _atom_site_symmetry_multiplicity
  _atom_site_fract_x
  _atom_site_fract_y
  _atom_site_fract_z
  _atom_site_occupancy
  Tl  Tl1       1.0  0.24999998742962168  0.24999996988798395  0.2500000419691805  1.0000
  Tl  Tl2       1.0  0.7499999274016247  0.7500000640837119  0.7499999959177238  1.0000
  Se  Se1       1.0  3.481381261025028e-09  0.9999999784985146  3.454589149929429e-08  1.0000
  F   F1        1.0  0.22062630099090552  0.220626275391409  0.7793737369625503  1.0000
  F   F2        1.0  0.779373697460334  0.7793736901664692  0.2206263555648757  1.0000
  F   F3        1.0  0.7793737297859338  0.22062627022046016  0.22062621627785753  1.0000
  F   F4        1.0  0.22062628001965728  0.7793737442044297  0.7793737216516693  1.0000
  F   F5        1.0  0.22062628684988875  0.7793737620736814  0.22062619407184594  1.0000
  F   F6        1.0  0.7793737807368677  0.22062625039652806  0.7793737207324091  1.0000
