data_image0
_chemical_formula_structural       Tl2ScI6
_chemical_formula_sum              "Tl2 Sc1 I6"
_cell_length_a       8.144447155577398
_cell_length_b       8.144447212903806
_cell_length_c       8.144447073792458
_cell_angle_alpha    60.00000056490907
_cell_angle_beta     60.00000204253216
_cell_angle_gamma    60.0000010040573

_space_group_name_H-M_alt    "P 1"
_space_group_IT_number       1

loop_
  _space_group_symop_operation_xyz
  'x, y, z'

loop_
  _atom_site_type_symbol
  _atom_site_label
  _atom_site_symmetry_multiplicity
  _atom_site_fract_x
  _atom_site_fract_y
  _atom_site_fract_z
  _atom_site_occupancy
  Tl  Tl1       1.0  0.25000000101375747  0.2499999877112159  0.2499999846932799  1.0000
  Tl  Tl2       1.0  0.749999996338137  0.7500000172696911  0.7499999856157551  1.0000
  Sc  Sc1       1.0  0.9999999115965962  1.5037807535091363e-09  0.9999997303530492  1.0000
  I   I1        1.0  0.2489558227404262  0.2489558641026517  0.7510441495079567  1.0000
  I   I2        1.0  0.7510442790673995  0.7510442145634262  0.24895575260364605  1.0000
  I   I3        1.0  0.7510441148639085  0.2489558476832963  0.24895588200319604  1.0000
  I   I4        1.0  0.2489557343217099  0.7510442445167909  0.7510443054096112  1.0000
  I   I5        1.0  0.24895584951062955  0.7510441154298513  0.24895584975954646  1.0000
  I   I6        1.0  0.7510442865573934  0.24895570308245957  0.7510443568403895  1.0000
