data_image0
_chemical_formula_structural       Tl2SrBr6
_chemical_formula_sum              "Tl2 Sr1 Br6"
_cell_length_a       7.868010683850878
_cell_length_b       7.868010934858156
_cell_length_c       7.868010985249447
_cell_angle_alpha    60.00000401049737
_cell_angle_beta     60.000001989780145
_cell_angle_gamma    60.000003103256624

_space_group_name_H-M_alt    "P 1"
_space_group_IT_number       1

loop_
  _space_group_symop_operation_xyz
  'x, y, z'

loop_
  _atom_site_type_symbol
  _atom_site_label
  _atom_site_symmetry_multiplicity
  _atom_site_fract_x
  _atom_site_fract_y
  _atom_site_fract_z
  _atom_site_occupancy
  Tl  Tl1       1.0  0.25000007022333914  0.24999997742361657  0.24999995565799332  1.0000
  Tl  Tl2       1.0  0.75000000335334  0.7500000038750488  0.7499999793141399  1.0000
  Sr  Sr1       1.0  0.9999996219952745  2.4905808422642447e-07  1.991960594889942e-07  1.0000
  Br  Br1       1.0  0.2663701922127931  0.26637018282616937  0.7336298116182575  1.0000
  Br  Br2       1.0  0.7336299608349383  0.7336298638502423  0.26637005220044985  1.0000
  Br  Br3       1.0  0.7336299133925556  0.26637002479167404  0.2663701326098589  1.0000
  Br  Br4       1.0  0.26637010656759663  0.733629817968433  0.7336298742913956  1.0000
  Br  Br5       1.0  0.2663702098183615  0.733629876070818  0.26637008504396226  1.0000
  Br  Br6       1.0  0.7336299189798958  0.26637000560461677  0.7336299153419498  1.0000
