data_image0
_chemical_formula_structural       Tl2ScBr6
_chemical_formula_sum              "Tl2 Sc1 Br6"
_cell_length_a       7.611414308263029
_cell_length_b       7.611414179657225
_cell_length_c       7.611414422722785
_cell_angle_alpha    59.999999671066114
_cell_angle_beta     59.99999833974212
_cell_angle_gamma    60.00000207857438

_space_group_name_H-M_alt    "P 1"
_space_group_IT_number       1

loop_
  _space_group_symop_operation_xyz
  'x, y, z'

loop_
  _atom_site_type_symbol
  _atom_site_label
  _atom_site_symmetry_multiplicity
  _atom_site_fract_x
  _atom_site_fract_y
  _atom_site_fract_z
  _atom_site_occupancy
  Tl  Tl1       1.0  0.2500000345537608  0.2500000168219758  0.24999997462452575  1.0000
  Tl  Tl2       1.0  0.7499999923187713  0.750000002193231  0.7500000076226304  1.0000
  Sc  Sc1       1.0  0.9999999312431032  0.999999919545511  1.770833610327512e-07  1.0000
  Br  Br1       1.0  0.24548355522027876  0.24548361215511358  0.7545163744185764  1.0000
  Br  Br2       1.0  0.7545164807993012  0.7545164840964014  0.24548350288753806  1.0000
  Br  Br3       1.0  0.7545164040143977  0.24548360256358778  0.2454836262535501  1.0000
  Br  Br4       1.0  0.2454835989532062  0.7545163971425406  0.7545163368723057  1.0000
  Br  Br5       1.0  0.24548359966118824  0.7545163810535952  0.24548363331882192  1.0000
  Br  Br6       1.0  0.7545164093904613  0.24548359129800768  0.7545163509528036  1.0000
