data_image0
_chemical_formula_structural       Tl2TiI6
_chemical_formula_sum              "Tl2 Ti1 I6"
_cell_length_a       8.067785337171633
_cell_length_b       8.06778543898509
_cell_length_c       8.067785555075444
_cell_angle_alpha    60.00000003518179
_cell_angle_beta     59.99999729890331
_cell_angle_gamma    59.99999905530854

_space_group_name_H-M_alt    "P 1"
_space_group_IT_number       1

loop_
  _space_group_symop_operation_xyz
  'x, y, z'

loop_
  _atom_site_type_symbol
  _atom_site_label
  _atom_site_symmetry_multiplicity
  _atom_site_fract_x
  _atom_site_fract_y
  _atom_site_fract_z
  _atom_site_occupancy
  Tl  Tl1       1.0  0.24999998006450283  0.2499999691995474  0.2500000207446726  1.0000
  Tl  Tl2       1.0  0.7499999919763589  0.7500000442247818  0.7499999804244974  1.0000
  Ti  Ti1       1.0  5.8058554274855164e-08  5.7686592217507415e-08  0.9999999681568736  1.0000
  I   I1        1.0  0.24167403360364711  0.241674100065882  0.7583259214917251  1.0000
  I   I2        1.0  0.7583259165071518  0.7583258374550362  0.24167412611518696  1.0000
  I   I3        1.0  0.7583260139862663  0.24167405918508214  0.24167402045323358  1.0000
  I   I4        1.0  0.24167401364261965  0.7583259162875411  0.7583259681792842  1.0000
  I   I5        1.0  0.24167403844137017  0.7583259173549153  0.24167413777472666  1.0000
  I   I6        1.0  0.7583259497624283  0.2416740991055502  0.7583258562739018  1.0000
