data_image0
_chemical_formula_structural       Tl2TaI6
_chemical_formula_sum              "Tl2 Ta1 I6"
_cell_length_a       8.151884496515821
_cell_length_b       8.151884635293035
_cell_length_c       8.15188467419182
_cell_angle_alpha    59.99999990584929
_cell_angle_beta     59.999999427598
_cell_angle_gamma    60.000000337212164

_space_group_name_H-M_alt    "P 1"
_space_group_IT_number       1

loop_
  _space_group_symop_operation_xyz
  'x, y, z'

loop_
  _atom_site_type_symbol
  _atom_site_label
  _atom_site_symmetry_multiplicity
  _atom_site_fract_x
  _atom_site_fract_y
  _atom_site_fract_z
  _atom_site_occupancy
  Tl  Tl1       1.0  0.25000001580569614  0.25000000703917763  0.25000000160201014  1.0000
  Tl  Tl2       1.0  0.7499999881825764  0.7500000075958695  0.750000004382812  1.0000
  Ta  Ta1       1.0  0.9999998992431202  3.455536118852413e-08  9.198284835086335e-08  1.0000
  I   I1        1.0  0.2424233156249187  0.24242345264737356  0.7575766194187111  1.0000
  I   I2        1.0  0.7575766713925146  0.7575766596441296  0.24242333886304157  1.0000
  I   I3        1.0  0.7575766600579692  0.24242335460410902  0.242423308230231  1.0000
  I   I4        1.0  0.24242341615871968  0.7575765368335629  0.7575765870742395  1.0000
  I   I5        1.0  0.24242338197659294  0.7575765818230423  0.24242339834656854  1.0000
  I   I6        1.0  0.7575766577110097  0.24242336820850316  0.7575766441711229  1.0000
