data_image0
_chemical_formula_structural       Tl2TaBr6
_chemical_formula_sum              "Tl2 Ta1 Br6"
_cell_length_a       7.5529257599399795
_cell_length_b       7.552925869215398
_cell_length_c       7.552925664471521
_cell_angle_alpha    59.99999809597726
_cell_angle_beta     60.000001286806935
_cell_angle_gamma    59.99999737367541

_space_group_name_H-M_alt    "P 1"
_space_group_IT_number       1

loop_
  _space_group_symop_operation_xyz
  'x, y, z'

loop_
  _atom_site_type_symbol
  _atom_site_label
  _atom_site_symmetry_multiplicity
  _atom_site_fract_x
  _atom_site_fract_y
  _atom_site_fract_z
  _atom_site_occupancy
  Tl  Tl1       1.0  0.2500000282930666  0.24999999077618948  0.24999995209522324  1.0000
  Tl  Tl2       1.0  0.7500000064620002  0.7499999690854646  0.7500000467267203  1.0000
  Ta  Ta1       1.0  6.275539376115587e-08  1.8323517874824744e-07  0.9999999233443693  1.0000
  Br  Br1       1.0  0.2397085505510336  0.23970870572785544  0.7602913187807694  1.0000
  Br  Br2       1.0  0.7602912340352542  0.7602912249459016  0.23970876278793019  1.0000
  Br  Br3       1.0  0.7602913277791551  0.2397087736359532  0.23970857182766436  1.0000
  Br  Br4       1.0  0.23970872068748475  0.7602912689247658  0.7602913496611728  1.0000
  Br  Br5       1.0  0.23970869128981012  0.7602912287862519  0.23970862555272845  1.0000
  Br  Br6       1.0  0.7602914046495715  0.23970867594268963  0.7602914086391329  1.0000
