data_image0
_chemical_formula_structural       Tl2TiF6
_chemical_formula_sum              "Tl2 Ti1 F6"
_cell_length_a       6.242107431888483
_cell_length_b       6.242107857232211
_cell_length_c       6.242107322875003
_cell_angle_alpha    60.00000123001112
_cell_angle_beta     60.00000163960312
_cell_angle_gamma    60.00000093861047

_space_group_name_H-M_alt    "P 1"
_space_group_IT_number       1

loop_
  _space_group_symop_operation_xyz
  'x, y, z'

loop_
  _atom_site_type_symbol
  _atom_site_label
  _atom_site_symmetry_multiplicity
  _atom_site_fract_x
  _atom_site_fract_y
  _atom_site_fract_z
  _atom_site_occupancy
  Tl  Tl1       1.0  0.250000128012861  0.2500000385236866  0.2499998834409064  1.0000
  Tl  Tl2       1.0  0.7499999143256582  0.7500000429744995  0.7499999294875742  1.0000
  Ti  Ti1       1.0  6.4280198883866045e-09  0.9999999862655132  6.132606456692001e-08  1.0000
  F   F1        1.0  0.2147507249490039  0.21475062005568085  0.7852493101406051  1.0000
  F   F2        1.0  0.7852492799083255  0.7852493574528284  0.21475064241030234  1.0000
  F   F3        1.0  0.7852492731331866  0.2147506154923737  0.21475076443573932  1.0000
  F   F4        1.0  0.2147507268478498  0.7852493266988848  0.7852493219555787  1.0000
  F   F5        1.0  0.21475070826855924  0.785249319726638  0.2147506688481381  1.0000
  F   F6        1.0  0.7852492629547116  0.21475067544049292  0.7852494246584028  1.0000
