data_image0
_chemical_formula_structural       Tl2TiBr6
_chemical_formula_sum              "Tl2 Ti1 Br6"
_cell_length_a       7.485095447543545
_cell_length_b       7.485095210134048
_cell_length_c       7.485094901382681
_cell_angle_alpha    60.00000116718819
_cell_angle_beta     60.000002460472736
_cell_angle_gamma    59.99999947764526

_space_group_name_H-M_alt    "P 1"
_space_group_IT_number       1

loop_
  _space_group_symop_operation_xyz
  'x, y, z'

loop_
  _atom_site_type_symbol
  _atom_site_label
  _atom_site_symmetry_multiplicity
  _atom_site_fract_x
  _atom_site_fract_y
  _atom_site_fract_z
  _atom_site_occupancy
  Tl  Tl1       1.0  0.2500000072816256  0.24999999018339072  0.24999997550690406  1.0000
  Tl  Tl2       1.0  0.7499999960553282  0.7500000016388249  0.7500000187263367  1.0000
  Ti  Ti1       1.0  3.0853327654565376e-08  0.9999999999999998  0.9999999378137421  1.0000
  Br  Br1       1.0  0.23989234425671613  0.23989226144671247  0.7601076993625926  1.0000
  Br  Br2       1.0  0.7601077151455862  0.7601077565554203  0.23989226710789943  1.0000
  Br  Br3       1.0  0.7601076886145054  0.2398922349565872  0.23989223895462702  1.0000
  Br  Br4       1.0  0.23989229251823824  0.760107707778282  0.7601078510438705  1.0000
  Br  Br5       1.0  0.23989225451776008  0.760107779392339  0.23989214675385243  1.0000
  Br  Br6       1.0  0.7601076726510133  0.23989226969844799  0.7601078475772741  1.0000
