data_image0
_chemical_formula_structural       Tl2TaF6
_chemical_formula_sum              "Tl2 Ta1 F6"
_cell_length_a       6.282119485129646
_cell_length_b       6.282119243270622
_cell_length_c       6.28211962000974
_cell_angle_alpha    60.000000143546785
_cell_angle_beta     59.99999802294878
_cell_angle_gamma    59.999998949832936

_space_group_name_H-M_alt    "P 1"
_space_group_IT_number       1

loop_
  _space_group_symop_operation_xyz
  'x, y, z'

loop_
  _atom_site_type_symbol
  _atom_site_label
  _atom_site_symmetry_multiplicity
  _atom_site_fract_x
  _atom_site_fract_y
  _atom_site_fract_z
  _atom_site_occupancy
  Tl  Tl1       1.0  0.2500000213871807  0.24999997518808031  0.2500000208474644  1.0000
  Tl  Tl2       1.0  0.7500000673534403  0.7500000152445878  0.7499999699435088  1.0000
  Ta  Ta1       1.0  0.9999999752321744  1.364700877976582e-08  0.9999999784994787  1.0000
  F   F1        1.0  0.22018638753961253  0.22018641296879343  0.7798136377880601  1.0000
  F   F2        1.0  0.7798136408599031  0.7798135930604572  0.22018637537517538  1.0000
  F   F3        1.0  0.7798135695783291  0.22018641364171562  0.22018639435538673  1.0000
  F   F4        1.0  0.22018639248488922  0.7798135046567586  0.7798136560458998  1.0000
  F   F5        1.0  0.22018635823056387  0.7798136288510786  0.2201863781270118  1.0000
  F   F6        1.0  0.7798135653604282  0.2201864434636452  0.7798135922167938  1.0000
