data_image0
_chemical_formula_structural       Tl2TiCl6
_chemical_formula_sum              "Tl2 Ti1 Cl6"
_cell_length_a       7.1806483202274105
_cell_length_b       7.180648422641303
_cell_length_c       7.180648291817631
_cell_angle_alpha    60.00000073185437
_cell_angle_beta     60.00000271949989
_cell_angle_gamma    60.00000124858445

_space_group_name_H-M_alt    "P 1"
_space_group_IT_number       1

loop_
  _space_group_symop_operation_xyz
  'x, y, z'

loop_
  _atom_site_type_symbol
  _atom_site_label
  _atom_site_symmetry_multiplicity
  _atom_site_fract_x
  _atom_site_fract_y
  _atom_site_fract_z
  _atom_site_occupancy
  Tl  Tl1       1.0  0.24999994871314518  0.25000003181418357  0.24999998201786303  1.0000
  Tl  Tl2       1.0  0.7500000060884083  0.7499999436424816  0.7499999851507299  1.0000
  Ti  Ti1       1.0  0.9999999178266681  0.999999952242675  2.87568969722693e-08  1.0000
  Cl  Cl1       1.0  0.2334269632684261  0.23342688153325472  0.7665730389689777  1.0000
  Cl  Cl2       1.0  0.7665731153379952  0.7665731229189294  0.2334268601552158  1.0000
  Cl  Cl3       1.0  0.7665730121408982  0.23342698043463236  0.23342691243922195  1.0000
  Cl  Cl4       1.0  0.23342689027420893  0.766573128060294  0.766573177341397  1.0000
  Cl  Cl5       1.0  0.2334269877803432  0.766573059153066  0.23342685028319357  1.0000
  Cl  Cl6       1.0  0.7665731247098925  0.2334269111867418  0.766573191003737  1.0000
