data_image0
_chemical_formula_structural       Tl2TaCl6
_chemical_formula_sum              "Tl2 Ta1 Cl6"
_cell_length_a       7.196538461381341
_cell_length_b       7.196537811589232
_cell_length_c       7.196538338001684
_cell_angle_alpha    59.99999903982065
_cell_angle_beta     59.99999868825159
_cell_angle_gamma    60.00000140329904

_space_group_name_H-M_alt    "P 1"
_space_group_IT_number       1

loop_
  _space_group_symop_operation_xyz
  'x, y, z'

loop_
  _atom_site_type_symbol
  _atom_site_label
  _atom_site_symmetry_multiplicity
  _atom_site_fract_x
  _atom_site_fract_y
  _atom_site_fract_z
  _atom_site_occupancy
  Tl  Tl1       1.0  0.24999999208424253  0.24999998810545804  0.2500001259744833  1.0000
  Tl  Tl2       1.0  0.7499999154893903  0.7500000936571857  0.7500000532173087  1.0000
  Ta  Ta1       1.0  0.9999999502765082  0.9999999710685022  1.9356831874554248e-07  1.0000
  Cl  Cl1       1.0  0.23537925077938313  0.23537919720354017  0.7646206629861458  1.0000
  Cl  Cl2       1.0  0.7646208570842343  0.764620870944281  0.23537910604907308  1.0000
  Cl  Cl3       1.0  0.7646209311992058  0.23537908998427737  0.2353791567231707  1.0000
  Cl  Cl4       1.0  0.23537920457823103  0.764620692252258  0.7646208010617276  1.0000
  Cl  Cl5       1.0  0.23537913980597963  0.7646207818492566  0.23537924207300667  1.0000
  Cl  Cl6       1.0  0.7646207349152723  0.2353793118263494  0.7646206641188735  1.0000
