data_image0
_chemical_formula_structural       Tl2VBr6
_chemical_formula_sum              "Tl2 V1 Br6"
_cell_length_a       7.379886678004568
_cell_length_b       7.37988657783322
_cell_length_c       7.379886591303869
_cell_angle_alpha    60.00000038912383
_cell_angle_beta     59.999999859902175
_cell_angle_gamma    59.999999550865304

_space_group_name_H-M_alt    "P 1"
_space_group_IT_number       1

loop_
  _space_group_symop_operation_xyz
  'x, y, z'

loop_
  _atom_site_type_symbol
  _atom_site_label
  _atom_site_symmetry_multiplicity
  _atom_site_fract_x
  _atom_site_fract_y
  _atom_site_fract_z
  _atom_site_occupancy
  Tl  Tl1       1.0  0.25000000400343525  0.24999999716237847  0.249999994436457  1.0000
  Tl  Tl2       1.0  0.7499999940560422  0.7500000031041354  0.7500000040934497  1.0000
  V   V1        1.0  1.1215390016345867e-07  0.9999997527238607  2.5555052737803204e-08  1.0000
  Br  Br1       1.0  0.2389321077161912  0.23893205190395825  0.7610678968346121  1.0000
  Br  Br2       1.0  0.7610679398266119  0.7610680064475541  0.23893200726010147  1.0000
  Br  Br3       1.0  0.7610678886858204  0.2389320842195988  0.23893209550813868  1.0000
  Br  Br4       1.0  0.23893200466619643  0.7610680189403429  0.7610679743905727  1.0000
  Br  Br5       1.0  0.2389320419201355  0.761067995321652  0.23893202383899417  1.0000
  Br  Br6       1.0  0.7610679238970388  0.23893205473200396  0.7610679659184932  1.0000
