data_image0
_chemical_formula_structural       Tl2VF6
_chemical_formula_sum              "Tl2 V1 F6"
_cell_length_a       6.265293129009231
_cell_length_b       6.26529343707448
_cell_length_c       6.265293618653521
_cell_angle_alpha    60.00000021534912
_cell_angle_beta     59.99999876597984
_cell_angle_gamma    60.00000088568897

_space_group_name_H-M_alt    "P 1"
_space_group_IT_number       1

loop_
  _space_group_symop_operation_xyz
  'x, y, z'

loop_
  _atom_site_type_symbol
  _atom_site_label
  _atom_site_symmetry_multiplicity
  _atom_site_fract_x
  _atom_site_fract_y
  _atom_site_fract_z
  _atom_site_occupancy
  Tl  Tl1       1.0  0.2500000818271255  0.25000009425880054  0.2499998833177114  1.0000
  Tl  Tl2       1.0  0.7500000758383029  0.7499998683570115  0.7500002324735395  1.0000
  V   V1        1.0  0.9999999600127387  0.9999999706778726  0.9999999771952957  1.0000
  F   F1        1.0  0.2142405352679894  0.21424061325211324  0.7857594364279751  1.0000
  F   F2        1.0  0.7857594935910653  0.7857593708665898  0.214240511157896  1.0000
  F   F3        1.0  0.7857593987523496  0.21424058268988636  0.21424052290141843  1.0000
  F   F4        1.0  0.2142405082251899  0.785759446389411  0.7857594822980449  1.0000
  F   F5        1.0  0.21424058375040106  0.7857594397461694  0.2142404771676172  1.0000
  F   F6        1.0  0.785759404115218  0.21424056783023507  0.7857594935509701  1.0000
