data_image0
_chemical_formula_structural       Tl2VI6
_chemical_formula_sum              "Tl2 V1 I6"
_cell_length_a       7.938326586061549
_cell_length_b       7.938326565926315
_cell_length_c       7.938326650333482
_cell_angle_alpha    59.999999491710746
_cell_angle_beta     59.99999934510992
_cell_angle_gamma    59.99999991530803

_space_group_name_H-M_alt    "P 1"
_space_group_IT_number       1

loop_
  _space_group_symop_operation_xyz
  'x, y, z'

loop_
  _atom_site_type_symbol
  _atom_site_label
  _atom_site_symmetry_multiplicity
  _atom_site_fract_x
  _atom_site_fract_y
  _atom_site_fract_z
  _atom_site_occupancy
  Tl  Tl1       1.0  0.2500000122183206  0.24999999021637964  0.24999998576728563  1.0000
  Tl  Tl2       1.0  0.7499999931634744  0.7500000138482389  0.7500000015379472  1.0000
  V   V1        1.0  0.9999999884515206  0.999999995371525  2.068559052868891e-08  1.0000
  I   I1        1.0  0.2404108536935335  0.24041085894105077  0.7595891502112608  1.0000
  I   I2        1.0  0.7595891361138177  0.7595891482092177  0.2404108609743275  1.0000
  I   I3        1.0  0.7595891453509059  0.24041086399436126  0.24041084625352427  1.0000
  I   I4        1.0  0.240410876810354  0.7595891246420072  0.7595891340775444  1.0000
  I   I5        1.0  0.24041086397068506  0.7595891386894946  0.24041086309761528  1.0000
  I   I6        1.0  0.7595891291718843  0.24041087154642393  0.7595891398386936  1.0000
