data_image0
_chemical_formula_structural       Tl2VCl6
_chemical_formula_sum              "Tl2 V1 Cl6"
_cell_length_a       7.1080157076024815
_cell_length_b       7.108016044559131
_cell_length_c       7.108016041469957
_cell_angle_alpha    59.99999858233184
_cell_angle_beta     59.99999760535396
_cell_angle_gamma    59.99999921371114

_space_group_name_H-M_alt    "P 1"
_space_group_IT_number       1

loop_
  _space_group_symop_operation_xyz
  'x, y, z'

loop_
  _atom_site_type_symbol
  _atom_site_label
  _atom_site_symmetry_multiplicity
  _atom_site_fract_x
  _atom_site_fract_y
  _atom_site_fract_z
  _atom_site_occupancy
  Tl  Tl1       1.0  0.24999999178207255  0.24999999793142877  0.24999999933859515  1.0000
  Tl  Tl2       1.0  0.7499999973178504  0.750000005855618  0.7499999922542016  1.0000
  V   V1        1.0  0.9999999634247306  0.9999999586468614  6.006713957935537e-08  1.0000
  Cl  Cl1       1.0  0.23164910210843584  0.23164905729575047  0.7683509977099527  1.0000
  Cl  Cl2       1.0  0.768350996768015  0.7683509826752909  0.23164899265256025  1.0000
  Cl  Cl3       1.0  0.7683510368757587  0.2316489614953726  0.23164903862349429  1.0000
  Cl  Cl4       1.0  0.2316490083611184  0.7683509664775869  0.7683509360774852  1.0000
  Cl  Cl5       1.0  0.2316490047955641  0.7683510492991567  0.23164902665303888  1.0000
  Cl  Cl6       1.0  0.7683509039969181  0.23164901996369353  0.768350937184018  1.0000
