data_image0
_chemical_formula_structural       Tl2YBr6
_chemical_formula_sum              "Tl2 Y1 Br6"
_cell_length_a       7.7673150121979635
_cell_length_b       7.7673150607820185
_cell_length_c       7.7673150786503555
_cell_angle_alpha    59.99999906047106
_cell_angle_beta     59.99999953202415
_cell_angle_gamma    60.00000042664376

_space_group_name_H-M_alt    "P 1"
_space_group_IT_number       1

loop_
  _space_group_symop_operation_xyz
  'x, y, z'

loop_
  _atom_site_type_symbol
  _atom_site_label
  _atom_site_symmetry_multiplicity
  _atom_site_fract_x
  _atom_site_fract_y
  _atom_site_fract_z
  _atom_site_occupancy
  Tl  Tl1       1.0  0.24999996858127285  0.2500000329230805  0.25000001151579776  1.0000
  Tl  Tl2       1.0  0.7500000085624836  0.7499999820865533  0.7499999861192205  1.0000
  Y   Y1        1.0  0.9999999508952961  8.041644773888376e-08  0.9999999663198813  1.0000
  Br  Br1       1.0  0.25296741983683046  0.2529674363378471  0.7470325662197576  1.0000
  Br  Br2       1.0  0.747032532065418  0.7470325250608212  0.25296747599128244  1.0000
  Br  Br3       1.0  0.7470325489234013  0.25296743557723694  0.2529674643091453  1.0000
  Br  Br4       1.0  0.2529674954942056  0.7470325337053978  0.7470325135403243  1.0000
  Br  Br5       1.0  0.25296752546209084  0.7470324956226034  0.2529674499210327  1.0000
  Br  Br6       1.0  0.7470325519161045  0.2529674862743761  0.7470325476266937  1.0000
