data_image0
_chemical_formula_structural       Tl2YI6
_chemical_formula_sum              "Tl2 Y1 I6"
_cell_length_a       8.297499232042696
_cell_length_b       8.297498995088494
_cell_length_c       8.297499204988574
_cell_angle_alpha    59.99999913957862
_cell_angle_beta     60.000000304141096
_cell_angle_gamma    60.0000018484975

_space_group_name_H-M_alt    "P 1"
_space_group_IT_number       1

loop_
  _space_group_symop_operation_xyz
  'x, y, z'

loop_
  _atom_site_type_symbol
  _atom_site_label
  _atom_site_symmetry_multiplicity
  _atom_site_fract_x
  _atom_site_fract_y
  _atom_site_fract_z
  _atom_site_occupancy
  Tl  Tl1       1.0  0.24999999750756516  0.25000007888349557  0.2500000510136049  1.0000
  Tl  Tl2       1.0  0.749999968616791  0.7499999576787363  0.749999930873098  1.0000
  Y   Y1        1.0  2.410370187405128e-08  2.199301106039141e-07  0.9999997779529546  1.0000
  I   I1        1.0  0.2560731474053286  0.25607314890956573  0.7439268274718607  1.0000
  I   I2        1.0  0.7439267644771115  0.7439266913392109  0.256073283308075  1.0000
  I   I3        1.0  0.743926700855059  0.2560731522815462  0.25607316892604404  1.0000
  I   I4        1.0  0.25607334283613475  0.7439268060505148  0.7439268373959737  1.0000
  I   I5        1.0  0.25607326175258427  0.7439267666898244  0.2560731865184526  1.0000
  I   I6        1.0  0.7439267942244672  0.25607317983390887  0.7439269340571281  1.0000
