data_image0
_chemical_formula_structural       Tl2YCl6
_chemical_formula_sum              "Tl2 Y1 Cl6"
_cell_length_a       7.454901122037187
_cell_length_b       7.454900840749964
_cell_length_c       7.454901214144934
_cell_angle_alpha    60.00000191068014
_cell_angle_beta     59.999999917127795
_cell_angle_gamma    60.00000219503981

_space_group_name_H-M_alt    "P 1"
_space_group_IT_number       1

loop_
  _space_group_symop_operation_xyz
  'x, y, z'

loop_
  _atom_site_type_symbol
  _atom_site_label
  _atom_site_symmetry_multiplicity
  _atom_site_fract_x
  _atom_site_fract_y
  _atom_site_fract_z
  _atom_site_occupancy
  Tl  Tl1       1.0  0.24999997328913937  0.25000002350653666  0.24999998788854105  1.0000
  Tl  Tl2       1.0  0.7500000025397566  0.7500000130190905  0.7499999886388953  1.0000
  Y   Y1        1.0  0.9999999718243073  0.9999998800703412  1.5990223387703003e-07  1.0000
  Cl  Cl1       1.0  0.2482338308358404  0.2482337321626776  0.75176628963601  1.0000
  Cl  Cl2       1.0  0.7517663896114868  0.7517663372203983  0.24823360449226248  1.0000
  Cl  Cl3       1.0  0.7517662950582836  0.2482336804362767  0.2482338028107224  1.0000
  Cl  Cl4       1.0  0.2482337559507728  0.7517661770162982  0.7517662873675276  1.0000
  Cl  Cl5       1.0  0.2482336962915011  0.7517662952733474  0.24823370114118473  1.0000
  Cl  Cl6       1.0  0.7517660988914867  0.24823384639608373  0.7517661830215645  1.0000
