data_image0
_chemical_formula_structural       Tl2YBr6
_chemical_formula_sum              "Tl2 Y1 Br6"
_cell_length_a       7.76512713775089
_cell_length_b       7.765127129940927
_cell_length_c       7.765127114796862
_cell_angle_alpha    60.000000237843146
_cell_angle_beta     60.00000040553905
_cell_angle_gamma    59.99999933046231

_space_group_name_H-M_alt    "P 1"
_space_group_IT_number       1

loop_
  _space_group_symop_operation_xyz
  'x, y, z'

loop_
  _atom_site_type_symbol
  _atom_site_label
  _atom_site_symmetry_multiplicity
  _atom_site_fract_x
  _atom_site_fract_y
  _atom_site_fract_z
  _atom_site_occupancy
  Tl  Tl1       1.0  0.24999994927998986  0.25000004750729615  0.2499999809575837  1.0000
  Tl  Tl2       1.0  0.7500000540892855  0.7500000100339472  0.7499999716703192  1.0000
  Y   Y1        1.0  0.9999999913638863  0.9999999589918284  6.474421926024762e-08  1.0000
  Br  Br1       1.0  0.25300429852360595  0.2530043002323051  0.7469956854704622  1.0000
  Br  Br2       1.0  0.7469956939261649  0.7469957320731404  0.2530042981131809  1.0000
  Br  Br3       1.0  0.7469957163350118  0.25300424959361445  0.2530042537496663  1.0000
  Br  Br4       1.0  0.25300428225877797  0.7469957464353713  0.7469957268708722  1.0000
  Br  Br5       1.0  0.25300425367222745  0.7469957160716961  0.2530042706572992  1.0000
  Br  Br6       1.0  0.7469957680389011  0.25300423737188027  0.7469957441656443  1.0000
