data_image0
_chemical_formula_structural       Tl2YF6
_chemical_formula_sum              "Tl2 Y1 F6"
_cell_length_a       6.433186536639044
_cell_length_b       6.433186528774634
_cell_length_c       6.4331865218579685
_cell_angle_alpha    59.999999394967276
_cell_angle_beta     60.00000208826574
_cell_angle_gamma    59.99999956276576

_space_group_name_H-M_alt    "P 1"
_space_group_IT_number       1

loop_
  _space_group_symop_operation_xyz
  'x, y, z'

loop_
  _atom_site_type_symbol
  _atom_site_label
  _atom_site_symmetry_multiplicity
  _atom_site_fract_x
  _atom_site_fract_y
  _atom_site_fract_z
  _atom_site_occupancy
  Tl  Tl1       1.0  0.25000008707143645  0.250000068103357  0.24999990776094644  1.0000
  Tl  Tl2       1.0  0.7500000184688493  0.7500000386801701  0.7499999834303431  1.0000
  Y   Y1        1.0  2.092303205513682e-08  0.9999999695393276  5.9174207287765727e-08  1.0000
  F   F1        1.0  0.23895033595960147  0.23895028650603714  0.7610496971731681  1.0000
  F   F2        1.0  0.7610497228788131  0.7610496965310114  0.23895033053880363  1.0000
  F   F3        1.0  0.7610496115406962  0.23895028955291797  0.23895034428176556  1.0000
  F   F4        1.0  0.2389503455321187  0.7610496649272527  0.7610496755327815  1.0000
  F   F5        1.0  0.23895030838997497  0.7610496745924747  0.238950288206471  1.0000
  F   F6        1.0  0.7610495515211384  0.23895032367491195  0.7610497411964814  1.0000
