data_image0
_chemical_formula_structural       Tl2YI6
_chemical_formula_sum              "Tl2 Y1 I6"
_cell_length_a       8.302152488480907
_cell_length_b       8.30215285071432
_cell_length_c       8.302152957920537
_cell_angle_alpha    59.999996596779084
_cell_angle_beta     59.999999733331144
_cell_angle_gamma    60.00000285982647

_space_group_name_H-M_alt    "P 1"
_space_group_IT_number       1

loop_
  _space_group_symop_operation_xyz
  'x, y, z'

loop_
  _atom_site_type_symbol
  _atom_site_label
  _atom_site_symmetry_multiplicity
  _atom_site_fract_x
  _atom_site_fract_y
  _atom_site_fract_z
  _atom_site_occupancy
  Tl  Tl1       1.0  0.250000027228198  0.24999997583457703  0.2500000357498657  1.0000
  Tl  Tl2       1.0  0.7500000041467553  0.7500000307686875  0.749999930573105  1.0000
  Y   Y1        1.0  0.9999998339543152  7.671109875898378e-08  9.525657642257432e-08  1.0000
  I   I1        1.0  0.2559981297463161  0.2559981703408938  0.7440018258708287  1.0000
  I   I2        1.0  0.7440018397565198  0.7440018716674932  0.25599819463887014  1.0000
  I   I3        1.0  0.7440017304497095  0.2559982502216985  0.2559982090322623  1.0000
  I   I4        1.0  0.2559983771565993  0.7440016486909782  0.7440017019544242  1.0000
  I   I5        1.0  0.2559981558663589  0.7440018466132395  0.25599824146258354  1.0000
  I   I6        1.0  0.7440018954866342  0.255998133436179  0.7440017691015233  1.0000
