data_image0
_chemical_formula_structural       Tl2YCl6
_chemical_formula_sum              "Tl2 Y1 Cl6"
_cell_length_a       7.452627343379596
_cell_length_b       7.452627804363552
_cell_length_c       7.4526277880362155
_cell_angle_alpha    60.00000066483995
_cell_angle_beta     60.00000126269037
_cell_angle_gamma    60.00000089947923

_space_group_name_H-M_alt    "P 1"
_space_group_IT_number       1

loop_
  _space_group_symop_operation_xyz
  'x, y, z'

loop_
  _atom_site_type_symbol
  _atom_site_label
  _atom_site_symmetry_multiplicity
  _atom_site_fract_x
  _atom_site_fract_y
  _atom_site_fract_z
  _atom_site_occupancy
  Tl  Tl1       1.0  0.24999995852375315  0.24999998758513545  0.2500000000951089  1.0000
  Tl  Tl2       1.0  0.7500000261276525  0.7499999759023901  0.7500000230947124  1.0000
  Y   Y1        1.0  6.03482389597316e-08  0.9999999769927752  0.9999999773040685  1.0000
  Cl  Cl1       1.0  0.24825924039235003  0.24825932397986772  0.7517406299925361  1.0000
  Cl  Cl2       1.0  0.7517407961379515  0.7517407627606458  0.24825916742506024  1.0000
  Cl  Cl3       1.0  0.7517405068236954  0.24825942016649225  0.2482594765193884  1.0000
  Cl  Cl4       1.0  0.2482592641035028  0.7517407010848588  0.7517406269811547  1.0000
  Cl  Cl5       1.0  0.24825940777140634  0.7517406019720212  0.24825938885335214  1.0000
  Cl  Cl6       1.0  0.75174073717316  0.24825924319263423  0.7517407180123976  1.0000
