data_image0
_chemical_formula_structural       Tl2ZnI6
_chemical_formula_sum              "Tl2 Zn1 I6"
_cell_length_a       7.884433366723972
_cell_length_b       7.884433499239326
_cell_length_c       7.88443313728088
_cell_angle_alpha    60.00000035282859
_cell_angle_beta     60.00000325252511
_cell_angle_gamma    59.99999880209374

_space_group_name_H-M_alt    "P 1"
_space_group_IT_number       1

loop_
  _space_group_symop_operation_xyz
  'x, y, z'

loop_
  _atom_site_type_symbol
  _atom_site_label
  _atom_site_symmetry_multiplicity
  _atom_site_fract_x
  _atom_site_fract_y
  _atom_site_fract_z
  _atom_site_occupancy
  Tl  Tl1       1.0  0.2500000675322605  0.24999996132469482  0.24999994981811538  1.0000
  Tl  Tl2       1.0  0.7499999458137582  0.7499999864965614  0.75000003185534  1.0000
  Zn  Zn1       1.0  2.360305386298109e-10  3.8834270025593037e-08  0.9999999817331714  1.0000
  I   I1        1.0  0.25077671017875963  0.2507764633480896  0.7492234727863536  1.0000
  I   I2        1.0  0.7492232782244886  0.7492235636950759  0.2507765819449693  1.0000
  I   I3        1.0  0.7492233424019684  0.2507766940645226  0.25077653877991474  1.0000
  I   I4        1.0  0.25077667798495096  0.749223294144374  0.749223435667456  1.0000
  I   I5        1.0  0.25077667809950166  0.7492234526149425  0.25077654078615397  1.0000
  I   I6        1.0  0.7492232895490224  0.250776562001259  0.749223458241659  1.0000
