data_image0
_chemical_formula_structural       Tl2ZnCl6
_chemical_formula_sum              "Tl2 Zn1 Cl6"
_cell_length_a       7.264906598376249
_cell_length_b       7.264906651276299
_cell_length_c       7.264905221885635
_cell_angle_alpha    59.999995585034966
_cell_angle_beta     60.00000068436263
_cell_angle_gamma    60.00000274268765

_space_group_name_H-M_alt    "P 1"
_space_group_IT_number       1

loop_
  _space_group_symop_operation_xyz
  'x, y, z'

loop_
  _atom_site_type_symbol
  _atom_site_label
  _atom_site_symmetry_multiplicity
  _atom_site_fract_x
  _atom_site_fract_y
  _atom_site_fract_z
  _atom_site_occupancy
  Tl  Tl1       1.0  0.24999987215136993  0.2500001132749531  0.2499999553223453  1.0000
  Tl  Tl2       1.0  0.7499999345701585  0.7499999385956407  0.7499999804771045  1.0000
  Zn  Zn1       1.0  1.0853251631474623e-08  0.9999999865132911  1.251999696722101e-07  1.0000
  Cl  Cl1       1.0  0.2383675782548439  0.23836726105104844  0.7616325820102182  1.0000
  Cl  Cl2       1.0  0.7616324504734884  0.7616327065276733  0.23836756848673563  1.0000
  Cl  Cl3       1.0  0.7616327813255876  0.23836716586269516  0.23836761686015018  1.0000
  Cl  Cl4       1.0  0.23836740846610435  0.7616326904508081  0.7616323063951095  1.0000
  Cl  Cl5       1.0  0.23836743751697909  0.761632825127834  0.23836750683764715  1.0000
  Cl  Cl6       1.0  0.7616325568031779  0.23836730766293726  0.7616324199621058  1.0000
