data_image0
_chemical_formula_structural       Tl2ZnBr6
_chemical_formula_sum              "Tl2 Zn1 Br6"
_cell_length_a       7.464779131039908
_cell_length_b       7.46477888793952
_cell_length_c       7.464778939532063
_cell_angle_alpha    60.00000132775873
_cell_angle_beta     59.99999933726237
_cell_angle_gamma    60.00000070234139

_space_group_name_H-M_alt    "P 1"
_space_group_IT_number       1

loop_
  _space_group_symop_operation_xyz
  'x, y, z'

loop_
  _atom_site_type_symbol
  _atom_site_label
  _atom_site_symmetry_multiplicity
  _atom_site_fract_x
  _atom_site_fract_y
  _atom_site_fract_z
  _atom_site_occupancy
  Tl  Tl1       1.0  0.25000001032705976  0.2499999903593839  0.2499999930750112  1.0000
  Tl  Tl2       1.0  0.7499999704496788  0.7500000088142085  0.7500000254529908  1.0000
  Zn  Zn1       1.0  9.216795567088098e-09  1.115674686415605e-07  0.9999998444945368  1.0000
  Br  Br1       1.0  0.24536363044278048  0.24536370254373918  0.7546363122188724  1.0000
  Br  Br2       1.0  0.7546364376768655  0.7546363130368329  0.24536357405672146  1.0000
  Br  Br3       1.0  0.7546362959185681  0.2453636857999342  0.24536359623021614  1.0000
  Br  Br4       1.0  0.24536358329588234  0.7546363396248267  0.7546364478967277  1.0000
  Br  Br5       1.0  0.24536368457935553  0.7546362817913329  0.2453636893908251  1.0000
  Br  Br6       1.0  0.7546364137618803  0.2453635549531516  0.7546364868715434  1.0000
