data_image0
_chemical_formula_structural       Tl2ZnF6
_chemical_formula_sum              "Tl2 Zn1 F6"
_cell_length_a       5.625128726168797
_cell_length_b       5.625128618153525
_cell_length_c       5.625128775958897
_cell_angle_alpha    59.99999896628644
_cell_angle_beta     59.99999838513894
_cell_angle_gamma    59.99999679877516

_space_group_name_H-M_alt    "P 1"
_space_group_IT_number       1

loop_
  _space_group_symop_operation_xyz
  'x, y, z'

loop_
  _atom_site_type_symbol
  _atom_site_label
  _atom_site_symmetry_multiplicity
  _atom_site_fract_x
  _atom_site_fract_y
  _atom_site_fract_z
  _atom_site_occupancy
  Tl  Tl1       1.0  0.24999989125127137  0.25000019451632666  0.25000018766137794  1.0000
  Tl  Tl2       1.0  0.7499998629453637  0.7500002068804902  0.7500003491740875  1.0000
  Zn  Zn1       1.0  0.9999998845904232  0.9999999520999642  4.787780301455167e-08  1.0000
  F   F1        1.0  0.24841762381028312  0.24841746596398176  0.7515824015963862  1.0000
  F   F2        1.0  0.7515826576206619  0.7515824499006115  0.24841731440634546  1.0000
  F   F3        1.0  0.7515825476214688  0.24841743998013827  0.24841749570362762  1.0000
  F   F4        1.0  0.24841743327847465  0.751582447579894  0.75158237760594  1.0000
  F   F5        1.0  0.24841763770427838  0.7515824086554993  0.2484173429528629  1.0000
  F   F6        1.0  0.7515824743442474  0.2484174549545105  0.751582444758156  1.0000
