data_image0
_chemical_formula_structural       V2AsSe6
_chemical_formula_sum              "V2 As1 Se6"
_cell_length_a       6.277537885868287
_cell_length_b       6.277537768279726
_cell_length_c       6.277537824216734
_cell_angle_alpha    60.00000158848739
_cell_angle_beta     60.00000131910678
_cell_angle_gamma    59.99999899108016

_space_group_name_H-M_alt    "P 1"
_space_group_IT_number       1

loop_
  _space_group_symop_operation_xyz
  'x, y, z'

loop_
  _atom_site_type_symbol
  _atom_site_label
  _atom_site_symmetry_multiplicity
  _atom_site_fract_x
  _atom_site_fract_y
  _atom_site_fract_z
  _atom_site_occupancy
  V   V1        1.0  0.2500002759283507  0.25000011890094126  0.24999963723714516  1.0000
  V   V2        1.0  0.7500000981428524  0.7499996816583694  0.7500003117805315  1.0000
  As  As1       1.0  0.9999999608335061  0.99999999609801  5.180088517936704e-08  1.0000
  Se  Se1       1.0  0.2832814880736805  0.28328171436772426  0.7167184074539427  1.0000
  Se  Se2       1.0  0.7167184043253295  0.7167183944488995  0.2832814880888255  1.0000
  Se  Se3       1.0  0.7167184442761744  0.2832815753226195  0.2832814274144607  1.0000
  Se  Se4       1.0  0.2832815882373553  0.7167183559534013  0.7167184963992352  1.0000
  Se  Se5       1.0  0.2832814886286858  0.7167185258689687  0.2832815730595351  1.0000
  Se  Se6       1.0  0.7167182506333125  0.28328163952653496  0.7167186128954475  1.0000
