data_image0
_chemical_formula_structural       V2AsCl6
_chemical_formula_sum              "V2 As1 Cl6"
_cell_length_a       6.598903596057975
_cell_length_b       6.5989037879598635
_cell_length_c       6.598903699489611
_cell_angle_alpha    60.00000101714286
_cell_angle_beta     60.000000421613564
_cell_angle_gamma    59.999999813934686

_space_group_name_H-M_alt    "P 1"
_space_group_IT_number       1

loop_
  _space_group_symop_operation_xyz
  'x, y, z'

loop_
  _atom_site_type_symbol
  _atom_site_label
  _atom_site_symmetry_multiplicity
  _atom_site_fract_x
  _atom_site_fract_y
  _atom_site_fract_z
  _atom_site_occupancy
  V   V1        1.0  0.2500001932186925  0.2499999963563113  0.2499998459796911  1.0000
  V   V2        1.0  0.7500000617558467  0.7500000781560908  0.7499995750434286  1.0000
  As  As1       1.0  2.8722197354047236e-08  0.9999999925760703  0.9999999696506243  1.0000
  Cl  Cl1       1.0  0.25449420068849876  0.25449422919810394  0.7455058365384133  1.0000
  Cl  Cl2       1.0  0.7455057101171041  0.7455057859228713  0.2544943848491625  1.0000
  Cl  Cl3       1.0  0.7455057348579898  0.2544941120358004  0.25449430907513493  1.0000
  Cl  Cl4       1.0  0.2544942083120523  0.7455058269899001  0.7455058402228582  1.0000
  Cl  Cl5       1.0  0.25449410597681493  0.7455057735736198  0.254494320179615  1.0000
  Cl  Cl6       1.0  0.7455057659442161  0.2544942007157456  0.7455059092425833  1.0000
