data_image0
_chemical_formula_structural       V2AsI6
_chemical_formula_sum              "V2 As1 I6"
_cell_length_a       7.726337934332464
_cell_length_b       7.726337967784343
_cell_length_c       7.726338040669445
_cell_angle_alpha    59.99999951582163
_cell_angle_beta     60.000000799303436
_cell_angle_gamma    60.00000020946039

_space_group_name_H-M_alt    "P 1"
_space_group_IT_number       1

loop_
  _space_group_symop_operation_xyz
  'x, y, z'

loop_
  _atom_site_type_symbol
  _atom_site_label
  _atom_site_symmetry_multiplicity
  _atom_site_fract_x
  _atom_site_fract_y
  _atom_site_fract_z
  _atom_site_occupancy
  V   V1        1.0  0.2500000193074675  0.2499999758701547  0.24999999405882764  1.0000
  V   V2        1.0  0.7499999907139361  0.7500000036979383  0.7499999906797203  1.0000
  As  As1       1.0  0.9999999963764059  3.3288269899104486e-08  0.9999999968161298  1.0000
  I   I1        1.0  0.25889460586952  0.2588945713419624  0.7411053965999673  1.0000
  I   I2        1.0  0.7411053547583105  0.7411053860339502  0.25889465111121507  1.0000
  I   I3        1.0  0.7411054255105726  0.25889460283693433  0.2588946019853161  1.0000
  I   I4        1.0  0.25889461668011365  0.7411053878272486  0.7411053766518363  1.0000
  I   I5        1.0  0.25889458776947855  0.741105433853407  0.25889460144255644  1.0000
  I   I6        1.0  0.7411053998033303  0.25889459960997996  0.7411053947524  1.0000
