data_image0
_chemical_formula_structural       V2AsBr6
_chemical_formula_sum              "V2 As1 Br6"
_cell_length_a       6.9713027005145305
_cell_length_b       6.971302641987378
_cell_length_c       6.971302680724512
_cell_angle_alpha    60.00000230010082
_cell_angle_beta     60.00000178155857
_cell_angle_gamma    60.00000400009712

_space_group_name_H-M_alt    "P 1"
_space_group_IT_number       1

loop_
  _space_group_symop_operation_xyz
  'x, y, z'

loop_
  _atom_site_type_symbol
  _atom_site_label
  _atom_site_symmetry_multiplicity
  _atom_site_fract_x
  _atom_site_fract_y
  _atom_site_fract_z
  _atom_site_occupancy
  V   V1        1.0  0.2500000400259571  0.24999986043214215  0.2499999686646024  1.0000
  V   V2        1.0  0.75000007907909  0.7500000521289749  0.7500000238698266  1.0000
  As  As1       1.0  6.625450647401583e-09  7.645779467331317e-16  2.2507412772116744e-08  1.0000
  Br  Br1       1.0  0.25743370163490664  0.2574336550670488  0.7425663081443215  1.0000
  Br  Br2       1.0  0.7425662734153557  0.7425663418222805  0.25743371138448934  1.0000
  Br  Br3       1.0  0.7425663039207981  0.257433699725223  0.25743367471417694  1.0000
  Br  Br4       1.0  0.25743366616037583  0.7425662971641049  0.7425662942244496  1.0000
  Br  Br5       1.0  0.25743366208410007  0.7425663393025481  0.2574336859355269  1.0000
  Br  Br6       1.0  0.7425662750190587  0.25743373664448294  0.7425663116035335  1.0000
