data_image0
_chemical_formula_structural       V2AsCl6
_chemical_formula_sum              "V2 As1 Cl6"
_cell_length_a       6.598840284585668
_cell_length_b       6.598840422169065
_cell_length_c       6.598840369177922
_cell_angle_alpha    59.99999854023206
_cell_angle_beta     60.00000089241953
_cell_angle_gamma    59.9999994064626

_space_group_name_H-M_alt    "P 1"
_space_group_IT_number       1

loop_
  _space_group_symop_operation_xyz
  'x, y, z'

loop_
  _atom_site_type_symbol
  _atom_site_label
  _atom_site_symmetry_multiplicity
  _atom_site_fract_x
  _atom_site_fract_y
  _atom_site_fract_z
  _atom_site_occupancy
  V   V1        1.0  0.2500000562718681  0.2500000927750323  0.25000002554149287  1.0000
  V   V2        1.0  0.7499999653778078  0.7499999962130783  0.7500000814787967  1.0000
  As  As1       1.0  4.8431866306587304e-09  0.99999999072  0.999999967363798  1.0000
  Cl  Cl1       1.0  0.25449807668836194  0.25449811916250015  0.7455019741526716  1.0000
  Cl  Cl2       1.0  0.7455018577355549  0.7455018640336032  0.2544981505747773  1.0000
  Cl  Cl3       1.0  0.7455018005894655  0.25449821042928156  0.25449809847586613  1.0000
  Cl  Cl4       1.0  0.25449812149441076  0.7455019305268407  0.7455017565372803  1.0000
  Cl  Cl5       1.0  0.25449818304920335  0.74550171057326  0.254498108000854  1.0000
  Cl  Cl6       1.0  0.7455019211136465  0.2544980888788315  0.7455018206631565  1.0000
