data_image0
_chemical_formula_structural       V2AsI6
_chemical_formula_sum              "V2 As1 I6"
_cell_length_a       7.726294836716646
_cell_length_b       7.726295045159116
_cell_length_c       7.726294999387949
_cell_angle_alpha    59.99999921408945
_cell_angle_beta     59.99999939474651
_cell_angle_gamma    60.000000433644786

_space_group_name_H-M_alt    "P 1"
_space_group_IT_number       1

loop_
  _space_group_symop_operation_xyz
  'x, y, z'

loop_
  _atom_site_type_symbol
  _atom_site_label
  _atom_site_symmetry_multiplicity
  _atom_site_fract_x
  _atom_site_fract_y
  _atom_site_fract_z
  _atom_site_occupancy
  V   V1        1.0  0.24999996770068975  0.2500000309371801  0.24999999644931642  1.0000
  V   V2        1.0  0.7500000091836592  0.7499999897758469  0.7500000266534443  1.0000
  As  As1       1.0  0.9999999942783871  1.268131619044262e-08  0.9999999887544597  1.0000
  I   I1        1.0  0.2588953692251754  0.2588953534711142  0.7411046292227133  1.0000
  I   I2        1.0  0.7411046593634439  0.7411046466347748  0.2588953278545063  1.0000
  I   I3        1.0  0.7411046229751477  0.25889537154999054  0.2588953658537034  1.0000
  I   I4        1.0  0.2588953648240386  0.741104625385569  0.7411046429718701  1.0000
  I   I5        1.0  0.2588953771342902  0.7411046229933318  0.258895343610418  1.0000
  I   I6        1.0  0.7411046375815846  0.2588953469944308  0.7411046768792424  1.0000
