data_image0
_chemical_formula_structural       V2AsO6
_chemical_formula_sum              "V2 As1 O6"
_cell_length_a       4.995442439835819
_cell_length_b       4.995442513950666
_cell_length_c       4.9954423135411306
_cell_angle_alpha    59.99999911867738
_cell_angle_beta     59.999999910750084
_cell_angle_gamma    59.9999982107414

_space_group_name_H-M_alt    "P 1"
_space_group_IT_number       1

loop_
  _space_group_symop_operation_xyz
  'x, y, z'

loop_
  _atom_site_type_symbol
  _atom_site_label
  _atom_site_symmetry_multiplicity
  _atom_site_fract_x
  _atom_site_fract_y
  _atom_site_fract_z
  _atom_site_occupancy
  V   V1        1.0  0.24999974682740175  0.24999988939621398  0.25000031674109985  1.0000
  V   V2        1.0  0.7499999063284811  0.750000146274918  0.7500000519595786  1.0000
  As  As1       1.0  0.9999999932056924  0.9999999926448268  0.9999999970656168  1.0000
  O   O1        1.0  0.2536792276757679  0.25367913496150574  0.7463207098709838  1.0000
  O   O2        1.0  0.7463209040344577  0.7463207756716729  0.2536792238361075  1.0000
  O   O3        1.0  0.7463208706347232  0.2536793300375016  0.25367911492877626  1.0000
  O   O4        1.0  0.2536791578707498  0.7463208208646814  0.7463207542498352  1.0000
  O   O5        1.0  0.253679258439651  0.7463208657992462  0.2536791383600535  1.0000
  O   O6        1.0  0.7463208788269909  0.2536790767063514  0.7463207566143722  1.0000
