data_image0
_chemical_formula_structural       V2AsS6
_chemical_formula_sum              "V2 As1 S6"
_cell_length_a       6.350906642535712
_cell_length_b       6.350907830998361
_cell_length_c       6.350907306656282
_cell_angle_alpha    60.000001100300345
_cell_angle_beta     60.000001126512934
_cell_angle_gamma    60.000003968845334

_space_group_name_H-M_alt    "P 1"
_space_group_IT_number       1

loop_
  _space_group_symop_operation_xyz
  'x, y, z'

loop_
  _atom_site_type_symbol
  _atom_site_label
  _atom_site_symmetry_multiplicity
  _atom_site_fract_x
  _atom_site_fract_y
  _atom_site_fract_z
  _atom_site_occupancy
  V   V1        1.0  0.250000141094595  0.24999982670227328  0.250000274667476  1.0000
  V   V2        1.0  0.74999973305145  0.7499999853624049  0.7500000063845909  1.0000
  As  As1       1.0  0.9999999914416975  3.8569121571943375e-09  1.4947320188956094e-08  1.0000
  S   S1        1.0  0.2588523407557974  0.25885240100187207  0.7411477519469895  1.0000
  S   S2        1.0  0.7411477526542161  0.7411473859928627  0.25885275637117555  1.0000
  S   S3        1.0  0.7411474188730425  0.25885244316490835  0.25885244080093406  1.0000
  S   S4        1.0  0.2588523292394203  0.7411480033619142  0.7411470727243562  1.0000
  S   S5        1.0  0.25885286008176656  0.741147347604335  0.2588519492973444  1.0000
  S   S6        1.0  0.7411473275198405  0.25885268044746207  0.741147741095709  1.0000
