data_image0
_chemical_formula_structural       V2AsF6
_chemical_formula_sum              "V2 As1 F6"
_cell_length_a       4.842050627040195
_cell_length_b       4.842200676939159
_cell_length_c       4.6666214501297185
_cell_angle_alpha    58.97439778250437
_cell_angle_beta     58.97247073793165
_cell_angle_gamma    59.68616269912404

_space_group_name_H-M_alt    "P 1"
_space_group_IT_number       1

loop_
  _space_group_symop_operation_xyz
  'x, y, z'

loop_
  _atom_site_type_symbol
  _atom_site_label
  _atom_site_symmetry_multiplicity
  _atom_site_fract_x
  _atom_site_fract_y
  _atom_site_fract_z
  _atom_site_occupancy
  V   V1        1.0  0.24965397851942975  0.24850195064299457  0.25285087122333094  1.0000
  V   V2        1.0  0.7514780618518971  0.7503673441534575  0.7471504925424387  1.0000
  As  As1       1.0  0.006647036030821106  0.993351221319446  0.9999992564356749  1.0000
  F   F1        1.0  0.342570917157302  0.2864186368191457  0.679113113461535  1.0000
  F   F2        1.0  0.713595658169965  0.6574145573581748  0.32088924843531047  1.0000
  F   F3        1.0  0.6580561418929785  0.30645104047193306  0.31776696746195543  1.0000
  F   F4        1.0  0.278412864079985  0.6939628156025911  0.6884061831360134  1.0000
  F   F5        1.0  0.3060489408486777  0.7215808944643292  0.31158739304844046  1.0000
  F   F6        1.0  0.6935399881104986  0.3419527889736358  0.6822359061100736  1.0000
