data_image0
_chemical_formula_structural       V2AsBr6
_chemical_formula_sum              "V2 As1 Br6"
_cell_length_a       6.971335217564766
_cell_length_b       6.971335272689506
_cell_length_c       6.971335413011627
_cell_angle_alpha    60.00000085450826
_cell_angle_beta     60.00000100408798
_cell_angle_gamma    59.99999895578668

_space_group_name_H-M_alt    "P 1"
_space_group_IT_number       1

loop_
  _space_group_symop_operation_xyz
  'x, y, z'

loop_
  _atom_site_type_symbol
  _atom_site_label
  _atom_site_symmetry_multiplicity
  _atom_site_fract_x
  _atom_site_fract_y
  _atom_site_fract_z
  _atom_site_occupancy
  V   V1        1.0  0.2500000465773721  0.24999988970515602  0.25000004892292327  1.0000
  V   V2        1.0  0.7500000633329187  0.750000027508723  0.7499999742139454  1.0000
  As  As1       1.0  2.058253824638549e-09  0.9999999789180435  0.9999999750851616  1.0000
  Br  Br1       1.0  0.25743584315848156  0.2574358395082598  0.7425640975315241  1.0000
  Br  Br2       1.0  0.7425641334711334  0.7425642340634618  0.2574358107866925  1.0000
  Br  Br3       1.0  0.7425642403306472  0.257435767633846  0.25743581618083444  1.0000
  Br  Br4       1.0  0.2574357409695703  0.7425641478232057  0.7425642620983648  1.0000
  Br  Br5       1.0  0.2574357266063665  0.7425643116584184  0.25743581386770986  1.0000
  Br  Br6       1.0  0.7425641868635742  0.2574358023203881  0.7425642048035331  1.0000
