data_image0
_chemical_formula_structural       V2AsF6
_chemical_formula_sum              "V2 As1 F6"
_cell_length_a       3.700650192455537
_cell_length_b       4.148476185213179
_cell_length_c       5.896520357427046
_cell_angle_alpha    41.121970780034225
_cell_angle_beta     76.91756549368375
_cell_angle_gamma    73.71098717879433

_space_group_name_H-M_alt    "P 1"
_space_group_IT_number       1

loop_
  _space_group_symop_operation_xyz
  'x, y, z'

loop_
  _atom_site_type_symbol
  _atom_site_label
  _atom_site_symmetry_multiplicity
  _atom_site_fract_x
  _atom_site_fract_y
  _atom_site_fract_z
  _atom_site_occupancy
  V   V1        1.0  0.8214438662909491  0.4526016356773633  0.929205654679156  1.0000
  V   V2        1.0  0.7807217400630602  0.40830808762495263  0.9656795101460474  1.0000
  As  As1       1.0  0.7665524514426151  0.6679121557352345  0.13161652619499364  1.0000
  F   F1        1.0  0.9775657088947114  0.24993905645340173  0.7656878458496323  1.0000
  F   F2        1.0  0.5970384010923834  0.3049536038302432  0.5826871877638203  1.0000
  F   F3        1.0  0.07281188586511633  0.15215068934322126  0.19441260200273652  1.0000
  F   F4        1.0  0.4447097726567435  0.737647730359197  0.4065839729856298  1.0000
  F   F5        1.0  0.40629754014444186  0.4254342397468829  0.894314625673251  1.0000
  F   F6        1.0  0.6757919805799323  0.7143643297548584  0.04142790186205536  1.0000
