data_image0
_chemical_formula_structural       V2BBr6
_chemical_formula_sum              "V2 B1 Br6"
_cell_length_a       6.7747274994414495
_cell_length_b       6.77472756962253
_cell_length_c       6.774727531373149
_cell_angle_alpha    59.99999872975007
_cell_angle_beta     59.999999155664504
_cell_angle_gamma    59.99999884742801

_space_group_name_H-M_alt    "P 1"
_space_group_IT_number       1

loop_
  _space_group_symop_operation_xyz
  'x, y, z'

loop_
  _atom_site_type_symbol
  _atom_site_label
  _atom_site_symmetry_multiplicity
  _atom_site_fract_x
  _atom_site_fract_y
  _atom_site_fract_z
  _atom_site_occupancy
  V   V1        1.0  0.25000001087269075  0.24999999061888378  0.2499999692680448  1.0000
  V   V2        1.0  0.7499999800378947  0.7500000477848476  0.7500000038835357  1.0000
  B   B1        1.0  7.530481042393929e-08  0.999999983729669  1.431834324347649e-07  1.0000
  Br  Br1       1.0  0.2344520359383202  0.2344520257361043  0.7655479622065218  1.0000
  Br  Br2       1.0  0.765547936448126  0.7655479710879001  0.2344520350926957  1.0000
  Br  Br3       1.0  0.765547992109282  0.23445200805355107  0.23445196163729645  1.0000
  Br  Br4       1.0  0.2344520249880015  0.7655479978095248  0.7655479586004461  1.0000
  Br  Br5       1.0  0.23445199043351356  0.7655479744672613  0.23445199832448116  1.0000
  Br  Br6       1.0  0.7655479457642134  0.2344520133176729  0.7655479625456663  1.0000
