data_image0
_chemical_formula_structural       V2BCl6
_chemical_formula_sum              "V2 B1 Cl6"
_cell_length_a       6.355855115832445
_cell_length_b       6.355855104670292
_cell_length_c       6.355855128666213
_cell_angle_alpha    60.00000024398781
_cell_angle_beta     59.99999996834894
_cell_angle_gamma    59.999999515945504

_space_group_name_H-M_alt    "P 1"
_space_group_IT_number       1

loop_
  _space_group_symop_operation_xyz
  'x, y, z'

loop_
  _atom_site_type_symbol
  _atom_site_label
  _atom_site_symmetry_multiplicity
  _atom_site_fract_x
  _atom_site_fract_y
  _atom_site_fract_z
  _atom_site_occupancy
  V   V1        1.0  0.25000003378498253  0.24999993276582325  0.2500000120861357  1.0000
  V   V2        1.0  0.7500000264619148  0.7499999466730289  0.7500000923449368  1.0000
  B   B1        1.0  1.8608326518964247e-08  0.9999999768765369  1.6745957154337603e-07  1.0000
  Cl  Cl1       1.0  0.2267241406811231  0.22672428806475903  0.7732757755157202  1.0000
  Cl  Cl2       1.0  0.7732757840587353  0.7732757744348476  0.22672418556371127  1.0000
  Cl  Cl3       1.0  0.7732758333717341  0.22672422946122348  0.2267241389457764  1.0000
  Cl  Cl4       1.0  0.2267242445451294  0.773275771375812  0.7732757213091035  1.0000
  Cl  Cl5       1.0  0.2267241425608293  0.7732758423871919  0.22672418398681032  1.0000
  Cl  Cl6       1.0  0.7732757808754841  0.2267242567245652  0.7732756996509271  1.0000
