data_image0
_chemical_formula_structural       V2BF6
_chemical_formula_sum              "V2 B1 F6"
_cell_length_a       5.092311172905066
_cell_length_b       5.09231078126956
_cell_length_c       5.092310314077664
_cell_angle_alpha    60.000003954393975
_cell_angle_beta     60.0000108513959
_cell_angle_gamma    59.99999790861662

_space_group_name_H-M_alt    "P 1"
_space_group_IT_number       1

loop_
  _space_group_symop_operation_xyz
  'x, y, z'

loop_
  _atom_site_type_symbol
  _atom_site_label
  _atom_site_symmetry_multiplicity
  _atom_site_fract_x
  _atom_site_fract_y
  _atom_site_fract_z
  _atom_site_occupancy
  V   V1        1.0  0.2500006273002955  0.25000063643306536  0.2499988128913876  1.0000
  V   V2        1.0  0.7500001565853271  0.7500002690301711  0.7500003954833308  1.0000
  B   B1        1.0  0.9999998045791401  2.1645793850379033e-08  0.9999996843197568  1.0000
  F   F1        1.0  0.22422902140597858  0.2242288236425016  0.7757710145093748  1.0000
  F   F2        1.0  0.775770910660557  0.7757709706707504  0.22422896326535474  1.0000
  F   F3        1.0  0.7757707199432314  0.22422918949824713  0.2242291452128305  1.0000
  F   F4        1.0  0.22422868059993825  0.7757708116524804  0.7757714092550643  1.0000
  F   F5        1.0  0.22422921790500924  0.775770581193314  0.22422910565413157  1.0000
  F   F6        1.0  0.7757709062462027  0.2242287321025948  0.7757714211184495  1.0000
