data_image0
_chemical_formula_structural       V2BI6
_chemical_formula_sum              "V2 B1 I6"
_cell_length_a       7.355522715678001
_cell_length_b       7.3555228531705
_cell_length_c       7.355522874366681
_cell_angle_alpha    60.00000030813076
_cell_angle_beta     60.00000118162644
_cell_angle_gamma    60.00000201553463

_space_group_name_H-M_alt    "P 1"
_space_group_IT_number       1

loop_
  _space_group_symop_operation_xyz
  'x, y, z'

loop_
  _atom_site_type_symbol
  _atom_site_label
  _atom_site_symmetry_multiplicity
  _atom_site_fract_x
  _atom_site_fract_y
  _atom_site_fract_z
  _atom_site_occupancy
  V   V1        1.0  0.2500000063545891  0.2500000126465341  0.2500000224160176  1.0000
  V   V2        1.0  0.7500000464176598  0.7500000029731665  0.7500000071567597  1.0000
  B   B1        1.0  3.431338647324425e-08  6.660273595154614e-08  2.4315685603843548e-08  1.0000
  I   I1        1.0  0.23929367602506552  0.23929371801134958  0.760706245366809  1.0000
  I   I2        1.0  0.7607062937523692  0.7607062593117773  0.23929368850655547  1.0000
  I   I3        1.0  0.7607062773076723  0.23929369672622217  0.23929368229701786  1.0000
  I   I4        1.0  0.23929367926078202  0.7607062872571778  0.760706318748265  1.0000
  I   I5        1.0  0.23929369875877815  0.7607063119176359  0.23929369208513615  1.0000
  I   I6        1.0  0.7607062833080481  0.23929365208494366  0.7607063170775524  1.0000
