data_image0
_chemical_formula_structural       V2CBr6
_chemical_formula_sum              "V2 C1 Br6"
_cell_length_a       6.8956837654139305
_cell_length_b       6.895683626407593
_cell_length_c       6.8956836644558175
_cell_angle_alpha    59.99999992989374
_cell_angle_beta     59.999998992714495
_cell_angle_gamma    59.999999636101485

_space_group_name_H-M_alt    "P 1"
_space_group_IT_number       1

loop_
  _space_group_symop_operation_xyz
  'x, y, z'

loop_
  _atom_site_type_symbol
  _atom_site_label
  _atom_site_symmetry_multiplicity
  _atom_site_fract_x
  _atom_site_fract_y
  _atom_site_fract_z
  _atom_site_occupancy
  V   V1        1.0  0.25000007264500623  0.24999993217747235  0.2499999903093366  1.0000
  V   V2        1.0  0.7499999858315938  0.7500000256497856  0.7500000173766994  1.0000
  C   C1        1.0  3.217008043293681e-07  0.9999996678686212  0.9999999515585296  1.0000
  Br  Br1       1.0  0.24973888755727333  0.24973887681616072  0.7502611392171447  1.0000
  Br  Br2       1.0  0.7502610585054665  0.7502611218614802  0.24973888974880595  1.0000
  Br  Br3       1.0  0.7502610475995428  0.24973894178100892  0.24973894269626462  1.0000
  Br  Br4       1.0  0.2497388243254359  0.7502611687911612  0.7502611384502469  1.0000
  Br  Br5       1.0  0.24973879166060786  0.7502612843311145  0.24973886775343757  1.0000
  Br  Br6       1.0  0.7502610079694373  0.24973898786648516  0.7502610744659624  1.0000
