data_image0
_chemical_formula_structural       V2CCl6
_chemical_formula_sum              "V2 C1 Cl6"
_cell_length_a       6.534097224235727
_cell_length_b       6.5340972555114
_cell_length_c       6.534097511205506
_cell_angle_alpha    60.00000044899835
_cell_angle_beta     59.999999710280804
_cell_angle_gamma    60.00000147679324

_space_group_name_H-M_alt    "P 1"
_space_group_IT_number       1

loop_
  _space_group_symop_operation_xyz
  'x, y, z'

loop_
  _atom_site_type_symbol
  _atom_site_label
  _atom_site_symmetry_multiplicity
  _atom_site_fract_x
  _atom_site_fract_y
  _atom_site_fract_z
  _atom_site_occupancy
  V   V1        1.0  0.24999998419925368  0.2499999734011377  0.2500000702165349  1.0000
  V   V2        1.0  0.7500000401885907  0.7499999914302463  0.750000149605974  1.0000
  C   C1        1.0  0.999999914764376  0.9999999906280475  6.107768651937557e-08  1.0000
  Cl  Cl1       1.0  0.25097130184642485  0.2509713726313758  0.7490286726808731  1.0000
  Cl  Cl2       1.0  0.7490287172918644  0.7490286821707396  0.2509712752160636  1.0000
  Cl  Cl3       1.0  0.7490286892876387  0.25097134008673244  0.2509712474057866  1.0000
  Cl  Cl4       1.0  0.25097131698109787  0.7490286791019654  0.7490286329066403  1.0000
  Cl  Cl5       1.0  0.25097131639058545  0.7490286845678131  0.2509712821635616  1.0000
  Cl  Cl6       1.0  0.7490287026956803  0.25097128026356635  0.7490286479969906  1.0000
