data_image0
_chemical_formula_structural       V2CF6
_chemical_formula_sum              "V2 C1 F6"
_cell_length_a       2.96599927562948
_cell_length_b       2.3291770917663595
_cell_length_c       3.4371723227204956
_cell_angle_alpha    74.5700378075107
_cell_angle_beta     68.16855810288885
_cell_angle_gamma    76.72833763559993

_space_group_name_H-M_alt    "P 1"
_space_group_IT_number       1

loop_
  _space_group_symop_operation_xyz
  'x, y, z'

loop_
  _atom_site_type_symbol
  _atom_site_label
  _atom_site_symmetry_multiplicity
  _atom_site_fract_x
  _atom_site_fract_y
  _atom_site_fract_z
  _atom_site_occupancy
  V   V1        1.0  0.3157925843110272  0.0253548215436884  0.08477723211359267  1.0000
  V   V2        1.0  0.9378294547620624  0.0368400771189853  0.6899385529679956  1.0000
  C   C1        1.0  0.7695113776572315  0.7518154557916911  0.6930661677798136  1.0000
  F   F1        1.0  0.03053527888868134  0.5265132932017961  0.7768055440432708  1.0000
  F   F2        1.0  0.7360351765275329  0.5137974320618122  0.6186833151953439  1.0000
  F   F3        1.0  0.6360934320084368  0.5193985472533187  0.748148316223813  1.0000
  F   F4        1.0  0.8213853705417787  0.5216143445477084  0.7953329281172463  1.0000
  F   F5        1.0  0.9402944948668122  0.03127595016022671  0.6897146192973507  1.0000
  F   F6        1.0  0.21085896949605742  0.6043460527812462  0.607720387271768  1.0000
