data_image0
_chemical_formula_structural       V2CI6
_chemical_formula_sum              "V2 C1 I6"
_cell_length_a       7.435770738802698
_cell_length_b       7.435770756245237
_cell_length_c       7.435770709653943
_cell_angle_alpha    60.00000054641107
_cell_angle_beta     60.00000045186569
_cell_angle_gamma    59.999999382195035

_space_group_name_H-M_alt    "P 1"
_space_group_IT_number       1

loop_
  _space_group_symop_operation_xyz
  'x, y, z'

loop_
  _atom_site_type_symbol
  _atom_site_label
  _atom_site_symmetry_multiplicity
  _atom_site_fract_x
  _atom_site_fract_y
  _atom_site_fract_z
  _atom_site_occupancy
  V   V1        1.0  0.2500000272287246  0.2499999535029241  0.2500000088896689  1.0000
  V   V2        1.0  0.750000043536466  0.7499999609817961  0.7500000170249569  1.0000
  C   C1        1.0  9.976791918047556e-09  0.9999999654109261  0.9999999692709247  1.0000
  I   I1        1.0  0.25289287416730893  0.25289291243253825  0.7471070999414708  1.0000
  I   I2        1.0  0.7471070711870362  0.7471071453497745  0.2528928793739672  1.0000
  I   I3        1.0  0.7471071086610666  0.2528929045050476  0.2528928833332841  1.0000
  I   I4        1.0  0.25289284080294466  0.7471071549243639  0.7471071361389879  1.0000
  I   I5        1.0  0.2528928907988579  0.7471071305666352  0.2528928712277912  1.0000
  I   I6        1.0  0.7471071379895566  0.25289286792012183  0.7471071309845035  1.0000
