data_image0
_chemical_formula_structural       V2CoF6
_chemical_formula_sum              "V2 Co1 F6"
_cell_length_a       5.1600974375354856
_cell_length_b       5.160097417611754
_cell_length_c       5.160097431722969
_cell_angle_alpha    60.00000108667664
_cell_angle_beta     60.000001548217135
_cell_angle_gamma    59.999999796329156

_space_group_name_H-M_alt    "P 1"
_space_group_IT_number       1

loop_
  _space_group_symop_operation_xyz
  'x, y, z'

loop_
  _atom_site_type_symbol
  _atom_site_label
  _atom_site_symmetry_multiplicity
  _atom_site_fract_x
  _atom_site_fract_y
  _atom_site_fract_z
  _atom_site_occupancy
  V   V1        1.0  0.25000000524152916  0.24999988215492078  0.2500000815620921  1.0000
  V   V2        1.0  0.7500001044586913  0.750000078440258  0.7499997944125867  1.0000
  Co  Co1       1.0  0.9999999747060438  3.5602376332661686e-08  0.9999999754663109  1.0000
  F   F1        1.0  0.2514906383276459  0.2514906927373995  0.7485093973811117  1.0000
  F   F2        1.0  0.748509259530962  0.7485093461830108  0.2514907565880773  1.0000
  F   F3        1.0  0.7485093388158935  0.2514905739830311  0.25149076968836975  1.0000
  F   F4        1.0  0.2514906067141629  0.7485094293350011  0.7485092232104519  1.0000
  F   F5        1.0  0.2514906781474261  0.748509299745291  0.2514906351142987  1.0000
  F   F6        1.0  0.7485093451841822  0.2514906917052818  0.7485093403210606  1.0000
