data_image0
_chemical_formula_structural       V2CoI6
_chemical_formula_sum              "V2 Co1 I6"
_cell_length_a       7.430859636981301
_cell_length_b       7.430859649619971
_cell_length_c       7.4308596695982025
_cell_angle_alpha    59.99999951856142
_cell_angle_beta     59.99999912474992
_cell_angle_gamma    59.99999929531825

_space_group_name_H-M_alt    "P 1"
_space_group_IT_number       1

loop_
  _space_group_symop_operation_xyz
  'x, y, z'

loop_
  _atom_site_type_symbol
  _atom_site_label
  _atom_site_symmetry_multiplicity
  _atom_site_fract_x
  _atom_site_fract_y
  _atom_site_fract_z
  _atom_site_occupancy
  V   V1        1.0  0.24999998934681983  0.25000003838106893  0.2499999712576453  1.0000
  V   V2        1.0  0.7500000056983295  0.7499999602135969  0.7500000531531651  1.0000
  Co  Co1       1.0  6.274842735140682e-10  2.142643533853639e-08  1.5887826422577803e-08  1.0000
  I   I1        1.0  0.24906490909262954  0.24906491867519373  0.7509350867486491  1.0000
  I   I2        1.0  0.7509350876007072  0.7509350749749102  0.24906491104982326  1.0000
  I   I3        1.0  0.7509350779809165  0.24906490888879154  0.24906491442440426  1.0000
  I   I4        1.0  0.24906493307479938  0.7509350649830643  0.7509350726246091  1.0000
  I   I5        1.0  0.2490649163609874  0.7509350889062589  0.24906491861756888  1.0000
  I   I6        1.0  0.7509350862652688  0.2490649195775309  0.7509350593774253  1.0000
