data_image0
_chemical_formula_structural       V2CoCl6
_chemical_formula_sum              "V2 Co1 Cl6"
_cell_length_a       6.3596499521797725
_cell_length_b       6.3596500274730055
_cell_length_c       6.359649935154135
_cell_angle_alpha    59.99999942808473
_cell_angle_beta     59.99999934301631
_cell_angle_gamma    59.999999028006556

_space_group_name_H-M_alt    "P 1"
_space_group_IT_number       1

loop_
  _space_group_symop_operation_xyz
  'x, y, z'

loop_
  _atom_site_type_symbol
  _atom_site_label
  _atom_site_symmetry_multiplicity
  _atom_site_fract_x
  _atom_site_fract_y
  _atom_site_fract_z
  _atom_site_occupancy
  V   V1        1.0  0.25000002496945994  0.2500000747904937  0.24999987634595305  1.0000
  V   V2        1.0  0.7499999234780973  0.750000008681267  0.7500001176463469  1.0000
  Co  Co1       1.0  0.999999991985259  7.703222316702443e-09  0.9999999592730059  1.0000
  Cl  Cl1       1.0  0.2498049275877891  0.24980491488854667  0.7501950808472508  1.0000
  Cl  Cl2       1.0  0.7501950938924455  0.7501950202961928  0.24980490831705485  1.0000
  Cl  Cl3       1.0  0.7501950316974412  0.24980496670908975  0.24980493803509105  1.0000
  Cl  Cl4       1.0  0.24980497393579412  0.7501950378046462  0.7501950762778641  1.0000
  Cl  Cl5       1.0  0.24980494189814162  0.7501950308082583  0.2498049748844208  1.0000
  Cl  Cl6       1.0  0.7501950926945214  0.24980494674420065  0.7501950572984223  1.0000
