data_image0
_chemical_formula_structural       V2CrF6
_chemical_formula_sum              "V2 Cr1 F6"
_cell_length_a       5.203712376026433
_cell_length_b       5.203711693078656
_cell_length_c       5.203712257036209
_cell_angle_alpha    59.99999451266741
_cell_angle_beta     59.999997333524604
_cell_angle_gamma    59.999995422086045

_space_group_name_H-M_alt    "P 1"
_space_group_IT_number       1

loop_
  _space_group_symop_operation_xyz
  'x, y, z'

loop_
  _atom_site_type_symbol
  _atom_site_label
  _atom_site_symmetry_multiplicity
  _atom_site_fract_x
  _atom_site_fract_y
  _atom_site_fract_z
  _atom_site_occupancy
  V   V1        1.0  0.24999984709552664  0.24999958729275962  0.2499999655565935  1.0000
  V   V2        1.0  0.7500002330965512  0.75000010813679  0.7499998826872308  1.0000
  Cr  Cr1       1.0  0.9999999929853953  0.9999999411600295  8.096991426760559e-08  1.0000
  F   F1        1.0  0.25526104833727425  0.2552611402259484  0.7447390036304458  1.0000
  F   F2        1.0  0.7447388190926509  0.7447390070945674  0.25526091337606305  1.0000
  F   F3        1.0  0.7447390885531984  0.25526109959926563  0.2552611610668662  1.0000
  F   F4        1.0  0.2552611279779707  0.7447389323949107  0.7447388100839306  1.0000
  F   F5        1.0  0.25526085455246067  0.7447392308191912  0.25526137758386763  1.0000
  F   F6        1.0  0.7447389739662124  0.2552609400373098  0.7447388449745546  1.0000
