data_image0
_chemical_formula_structural       V2CrI6
_chemical_formula_sum              "V2 Cr1 I6"
_cell_length_a       7.513160394849723
_cell_length_b       7.513160405098304
_cell_length_c       7.513160326427573
_cell_angle_alpha    60.00000009635341
_cell_angle_beta     60.000000140961006
_cell_angle_gamma    60.00000008950735

_space_group_name_H-M_alt    "P 1"
_space_group_IT_number       1

loop_
  _space_group_symop_operation_xyz
  'x, y, z'

loop_
  _atom_site_type_symbol
  _atom_site_label
  _atom_site_symmetry_multiplicity
  _atom_site_fract_x
  _atom_site_fract_y
  _atom_site_fract_z
  _atom_site_occupancy
  V   V1        1.0  0.250000004567957  0.2499999601862941  0.25000002174386055  1.0000
  V   V2        1.0  0.7499999847796393  0.7500000272708284  0.7499999743937765  1.0000
  Cr  Cr1       1.0  1.1147238084498295e-08  0.9999999527261507  4.468326204270558e-08  1.0000
  I   I1        1.0  0.24903041272241405  0.24903038709525604  0.7509696091113947  1.0000
  I   I2        1.0  0.7509695814835895  0.7509696411151845  0.24903039217133371  1.0000
  I   I3        1.0  0.750969614714032  0.24903041370981882  0.2490303571797859  1.0000
  I   I4        1.0  0.24903039650713862  0.7509695818979673  0.7509696292697233  1.0000
  I   I5        1.0  0.24903037974338477  0.7509696254000636  0.24903036049361454  1.0000
  I   I6        1.0  0.7509696142761612  0.24903041259117353  0.7509696160269771  1.0000
