data_image0
_chemical_formula_structural       V2CrBr6
_chemical_formula_sum              "V2 Cr1 Br6"
_cell_length_a       6.875267378390985
_cell_length_b       6.87526702314943
_cell_length_c       6.87526712642135
_cell_angle_alpha    60.000000797345706
_cell_angle_beta     60.00000059455081
_cell_angle_gamma    59.999999956266265

_space_group_name_H-M_alt    "P 1"
_space_group_IT_number       1

loop_
  _space_group_symop_operation_xyz
  'x, y, z'

loop_
  _atom_site_type_symbol
  _atom_site_label
  _atom_site_symmetry_multiplicity
  _atom_site_fract_x
  _atom_site_fract_y
  _atom_site_fract_z
  _atom_site_occupancy
  V   V1        1.0  0.24999993718189947  0.24999995085930313  0.2500000291551884  1.0000
  V   V2        1.0  0.749999990859064  0.7500000200274323  0.7499999300835001  1.0000
  Cr  Cr1       1.0  1.888200558477503e-08  0.9999999786234647  0.9999999619760631  1.0000
  Br  Br1       1.0  0.24917476813751194  0.24917481977570863  0.7508252311095741  1.0000
  Br  Br2       1.0  0.7508252065044292  0.7508252027709882  0.2491748128116278  1.0000
  Br  Br3       1.0  0.7508252232307202  0.24917477453766643  0.24917481540935504  1.0000
  Br  Br4       1.0  0.24917481502842906  0.7508252586972975  0.7508251709962639  1.0000
  Br  Br5       1.0  0.2491748152782978  0.7508252270082528  0.249174829488898  1.0000
  Br  Br6       1.0  0.7508252214207108  0.24917477059915374  0.7508252060548372  1.0000
