data_image0
_chemical_formula_structural       V2FeCl6
_chemical_formula_sum              "V2 Fe1 Cl6"
_cell_length_a       6.478394297308176
_cell_length_b       6.478394301662413
_cell_length_c       6.478394695580689
_cell_angle_alpha    59.99999769531805
_cell_angle_beta     59.99999953872213
_cell_angle_gamma    60.00000084704735

_space_group_name_H-M_alt    "P 1"
_space_group_IT_number       1

loop_
  _space_group_symop_operation_xyz
  'x, y, z'

loop_
  _atom_site_type_symbol
  _atom_site_label
  _atom_site_symmetry_multiplicity
  _atom_site_fract_x
  _atom_site_fract_y
  _atom_site_fract_z
  _atom_site_occupancy
  V   V1        1.0  0.25000000141247286  0.2500000794957902  0.24999996230363827  1.0000
  V   V2        1.0  0.7500001592001455  0.7500000569987129  0.7500001085588395  1.0000
  Fe  Fe1       1.0  0.9999999755871821  0.9999999716423963  3.719035647421431e-08  1.0000
  Cl  Cl1       1.0  0.24341474160195098  0.24341489103531683  0.756585189803743  1.0000
  Cl  Cl2       1.0  0.7565852032893727  0.7565851547148543  0.243414737921829  1.0000
  Cl  Cl3       1.0  0.7565851179820772  0.24341478443430337  0.2434148700645914  1.0000
  Cl  Cl4       1.0  0.2434148031636967  0.7565851667905239  0.7565850967297281  1.0000
  Cl  Cl5       1.0  0.24341481402721704  0.7565851205019603  0.24341486683942007  1.0000
  Cl  Cl6       1.0  0.756585167432454  0.24341478346019624  0.7565851474550163  1.0000
