data_image0
_chemical_formula_structural       V2FeI6
_chemical_formula_sum              "V2 Fe1 I6"
_cell_length_a       7.391661657194859
_cell_length_b       7.391661695572253
_cell_length_c       7.391661679146009
_cell_angle_alpha    59.99999907723476
_cell_angle_beta     59.999999335147834
_cell_angle_gamma    59.999998601086226

_space_group_name_H-M_alt    "P 1"
_space_group_IT_number       1

loop_
  _space_group_symop_operation_xyz
  'x, y, z'

loop_
  _atom_site_type_symbol
  _atom_site_label
  _atom_site_symmetry_multiplicity
  _atom_site_fract_x
  _atom_site_fract_y
  _atom_site_fract_z
  _atom_site_occupancy
  V   V1        1.0  0.25000001190291726  0.2500000381195652  0.24999998562239553  1.0000
  V   V2        1.0  0.749999958596821  0.7499999801475542  0.750000074704606  1.0000
  Fe  Fe1       1.0  0.9999999942873848  2.6510842570804446e-08  3.018715929952163e-08  1.0000
  I   I1        1.0  0.23533006683384972  0.2353300400709911  0.7646699492950041  1.0000
  I   I2        1.0  0.7646699294349006  0.7646699102620939  0.23533005635346582  1.0000
  I   I3        1.0  0.7646699152466783  0.23533008506815684  0.23533004315796857  1.0000
  I   I4        1.0  0.23533011049745228  0.7646699033742649  0.764669893523372  1.0000
  I   I5        1.0  0.23533010325733122  0.7646699247885623  0.23533005192534465  1.0000
  I   I6        1.0  0.7646699062018059  0.23533009844934047  0.7646699133812738  1.0000
