data_image0
_chemical_formula_structural       V2FeBr6
_chemical_formula_sum              "V2 Fe1 Br6"
_cell_length_a       6.900402597467303
_cell_length_b       6.900402587222063
_cell_length_c       6.900402567319952
_cell_angle_alpha    60.00000049766661
_cell_angle_beta     60.000000167307476
_cell_angle_gamma    60.0000005021628

_space_group_name_H-M_alt    "P 1"
_space_group_IT_number       1

loop_
  _space_group_symop_operation_xyz
  'x, y, z'

loop_
  _atom_site_type_symbol
  _atom_site_label
  _atom_site_symmetry_multiplicity
  _atom_site_fract_x
  _atom_site_fract_y
  _atom_site_fract_z
  _atom_site_occupancy
  V   V1        1.0  0.24999998456397388  0.2500000475676818  0.25000002623337014  1.0000
  V   V2        1.0  0.7500001426855  0.7499999723137014  0.7499999201313392  1.0000
  Fe  Fe1       1.0  0.9999999805110529  0.999999998225111  1.6428681321519332e-08  1.0000
  Br  Br1       1.0  0.23310845174398093  0.23310847020450884  0.7668915372645684  1.0000
  Br  Br2       1.0  0.7668915303447574  0.7668914982050928  0.23310846394067483  1.0000
  Br  Br3       1.0  0.7668915224944276  0.23310843502544168  0.23310847200775162  1.0000
  Br  Br4       1.0  0.23310844402634012  0.7668915600074951  0.7668915265681912  1.0000
  Br  Br5       1.0  0.2331084154751226  0.7668915398704595  0.2331085036095333  1.0000
  Br  Br6       1.0  0.766891525741909  0.23310846581181116  0.766891553015289  1.0000
