data_image0
_chemical_formula_structural       V2GaCl6
_chemical_formula_sum              "V2 Ga1 Cl6"
_cell_length_a       6.5438103159013
_cell_length_b       6.543810377962538
_cell_length_c       6.543810265236019
_cell_angle_alpha    59.99999912332764
_cell_angle_beta     59.99999973461692
_cell_angle_gamma    60.000000125442405

_space_group_name_H-M_alt    "P 1"
_space_group_IT_number       1

loop_
  _space_group_symop_operation_xyz
  'x, y, z'

loop_
  _atom_site_type_symbol
  _atom_site_label
  _atom_site_symmetry_multiplicity
  _atom_site_fract_x
  _atom_site_fract_y
  _atom_site_fract_z
  _atom_site_occupancy
  V   V1        1.0  0.25000002983956776  0.2500000125949428  0.24999997313618186  1.0000
  V   V2        1.0  0.7500000238565853  0.7499999647921101  0.7500000223555215  1.0000
  Ga  Ga1       1.0  2.0550959666078976e-08  1.8716080286218216e-09  4.070332715913126e-09  1.0000
  Cl  Cl1       1.0  0.2525098018639139  0.2525099292387653  0.7474901558716032  1.0000
  Cl  Cl2       1.0  0.7474901314836944  0.7474901286274374  0.252509854970312  1.0000
  Cl  Cl3       1.0  0.7474900819968043  0.2525098941655175  0.25250987132261765  1.0000
  Cl  Cl4       1.0  0.2525098798347172  0.7474900888363595  0.7474901581250195  1.0000
  Cl  Cl5       1.0  0.25250990422417474  0.7474901240517915  0.2525098188830591  1.0000
  Cl  Cl6       1.0  0.7474901313094571  0.25250984959204587  0.7474901386603392  1.0000
