data_image0
_chemical_formula_structural       V2GaTe6
_chemical_formula_sum              "V2 Ga1 Te6"
_cell_length_a       7.192326574338584
_cell_length_b       7.1923266014126055
_cell_length_c       7.192326643935962
_cell_angle_alpha    59.999999421199256
_cell_angle_beta     59.99999994752098
_cell_angle_gamma    59.999999688912204

_space_group_name_H-M_alt    "P 1"
_space_group_IT_number       1

loop_
  _space_group_symop_operation_xyz
  'x, y, z'

loop_
  _atom_site_type_symbol
  _atom_site_label
  _atom_site_symmetry_multiplicity
  _atom_site_fract_x
  _atom_site_fract_y
  _atom_site_fract_z
  _atom_site_occupancy
  V   V1        1.0  0.249999966587247  0.2500000310843565  0.2500000034529015  1.0000
  V   V2        1.0  0.7500000721471854  0.7500000336533417  0.7499999178162091  1.0000
  Ga  Ga1       1.0  0.9999999999193216  0.9999999761601087  4.3938810247827116e-08  1.0000
  Te  Te1       1.0  0.2656903939721525  0.26569042472155313  0.7343096079485973  1.0000
  Te  Te2       1.0  0.734309659634405  0.7343095616850738  0.2656903992744427  1.0000
  Te  Te3       1.0  0.734309624823842  0.2656903472458447  0.26569040287297585  1.0000
  Te  Te4       1.0  0.26569038026272956  0.7343096016980967  0.7343095861650906  1.0000
  Te  Te5       1.0  0.26569033471756115  0.7343096093163709  0.26569042570879814  1.0000
  Te  Te6       1.0  0.7343095668236472  0.26569040944439426  0.7343096163431752  1.0000
