data_image0
_chemical_formula_structural       V2GaO6
_chemical_formula_sum              "V2 Ga1 O6"
_cell_length_a       5.0423847074696955
_cell_length_b       5.042384371663408
_cell_length_c       5.042384663300707
_cell_angle_alpha    59.99999979234111
_cell_angle_beta     59.99999982183127
_cell_angle_gamma    59.99999928208415

_space_group_name_H-M_alt    "P 1"
_space_group_IT_number       1

loop_
  _space_group_symop_operation_xyz
  'x, y, z'

loop_
  _atom_site_type_symbol
  _atom_site_label
  _atom_site_symmetry_multiplicity
  _atom_site_fract_x
  _atom_site_fract_y
  _atom_site_fract_z
  _atom_site_occupancy
  V   V1        1.0  0.2500000364418248  0.24999954298484467  0.250000107188745  1.0000
  V   V2        1.0  0.7499999595071739  0.7499998409757794  0.7500000700943773  1.0000
  Ga  Ga1       1.0  4.187078771395396e-09  0.999999980568797  0.9999999699414777  1.0000
  O   O1        1.0  0.25950007544606435  0.2594999541517786  0.7405000425030057  1.0000
  O   O2        1.0  0.7404998070309888  0.7405002167725414  0.2595000598151529  1.0000
  O   O3        1.0  0.740500092804489  0.2595002142173811  0.2594998448797208  1.0000
  O   O4        1.0  0.25950005718454233  0.7404999785670396  0.7404999481477404  1.0000
  O   O5        1.0  0.25949996410846543  0.7405001821596927  0.25950007396402625  1.0000
  O   O6        1.0  0.7405000453101012  0.25950013692754414  0.7404998392390141  1.0000
