data_image0
_chemical_formula_structural       V2GaF6
_chemical_formula_sum              "V2 Ga1 F6"
_cell_length_a       5.228444033621147
_cell_length_b       5.2284453378612055
_cell_length_c       5.228443906927634
_cell_angle_alpha    60.00000046542803
_cell_angle_beta     59.99999725703315
_cell_angle_gamma    59.999996495789574

_space_group_name_H-M_alt    "P 1"
_space_group_IT_number       1

loop_
  _space_group_symop_operation_xyz
  'x, y, z'

loop_
  _atom_site_type_symbol
  _atom_site_label
  _atom_site_symmetry_multiplicity
  _atom_site_fract_x
  _atom_site_fract_y
  _atom_site_fract_z
  _atom_site_occupancy
  V   V1        1.0  0.24999969330450458  0.25000025836772943  0.2500000866463021  1.0000
  V   V2        1.0  0.750000159241676  0.7499996108981885  0.7499998280488632  1.0000
  Ga  Ga1       1.0  0.9999999890684957  3.2794510378970905e-08  0.9999999431657363  1.0000
  F   F1        1.0  0.2507586988282012  0.2507588164848734  0.7492412887929039  1.0000
  F   F2        1.0  0.7492415190998807  0.7492411558494153  0.250758925296681  1.0000
  F   F3        1.0  0.7492412558869808  0.2507587065489889  0.25075870145012147  1.0000
  F   F4        1.0  0.2507586839464057  0.7492414110181608  0.7492412558384512  1.0000
  F   F5        1.0  0.25075866832914884  0.7492411998849514  0.25075878311447647  1.0000
  F   F6        1.0  0.7492413254689377  0.2507588286685335  0.7492412184751924  1.0000
