data_image0
_chemical_formula_structural       V2GaS6
_chemical_formula_sum              "V2 Ga1 S6"
_cell_length_a       6.065097843866965
_cell_length_b       6.065098110811654
_cell_length_c       6.06509791617607
_cell_angle_alpha    60.000000115111675
_cell_angle_beta     60.000001117196454
_cell_angle_gamma    60.000001965790595

_space_group_name_H-M_alt    "P 1"
_space_group_IT_number       1

loop_
  _space_group_symop_operation_xyz
  'x, y, z'

loop_
  _atom_site_type_symbol
  _atom_site_label
  _atom_site_symmetry_multiplicity
  _atom_site_fract_x
  _atom_site_fract_y
  _atom_site_fract_z
  _atom_site_occupancy
  V   V1        1.0  0.24999992820660571  0.2499998938416321  0.2500000623296297  1.0000
  V   V2        1.0  0.7499999500561818  0.7500000248113907  0.7499999787932431  1.0000
  Ga  Ga1       1.0  0.999999998363364  1.1914060538679745e-07  8.847912374860741e-09  1.0000
  S   S1        1.0  0.2637466482986902  0.2637466702230465  0.7362533474423919  1.0000
  S   S2        1.0  0.7362534032898396  0.7362533110292783  0.26374668948364216  1.0000
  S   S3        1.0  0.7362534608389645  0.2637466289486462  0.26374651511073655  1.0000
  S   S4        1.0  0.26374659538547773  0.7362532755690531  0.736253407825857  1.0000
  S   S5        1.0  0.26374655294312427  0.7362533984395241  0.2637466085112226  1.0000
  S   S6        1.0  0.736253478663244  0.2637466656054254  0.7362533854681331  1.0000
