data_image0
_chemical_formula_structural       V2GaF6
_chemical_formula_sum              "V2 Ga1 F6"
_cell_length_a       5.228443873298347
_cell_length_b       5.228444580464384
_cell_length_c       5.228443531930868
_cell_angle_alpha    60.000002153988355
_cell_angle_beta     59.99999872996403
_cell_angle_gamma    60.000003877134674

_space_group_name_H-M_alt    "P 1"
_space_group_IT_number       1

loop_
  _space_group_symop_operation_xyz
  'x, y, z'

loop_
  _atom_site_type_symbol
  _atom_site_label
  _atom_site_symmetry_multiplicity
  _atom_site_fract_x
  _atom_site_fract_y
  _atom_site_fract_z
  _atom_site_occupancy
  V   V1        1.0  0.24999973173572254  0.25000010981926035  0.24999989291426944  1.0000
  V   V2        1.0  0.7499998410531231  0.7500000085400713  0.7499999867819918  1.0000
  Ga  Ga1       1.0  0.9999999815282147  4.216436727590205e-08  3.023124007602951e-08  1.0000
  F   F1        1.0  0.2507589262875225  0.2507585599805675  0.7492413887781205  1.0000
  F   F2        1.0  0.7492414225376494  0.749241204666546  0.2507587598224665  1.0000
  F   F3        1.0  0.7492413267107089  0.2507587307313506  0.25075872387837006  1.0000
  F   F4        1.0  0.25075865703860706  0.74924130095677  0.7492413016042836  1.0000
  F   F5        1.0  0.2507587753292181  0.7492412495381323  0.2507587706366644  1.0000
  F   F6        1.0  0.7492413813757253  0.2507587071911102  0.7492412383620692  1.0000
