data_image0
_chemical_formula_structural       V2GaSe6
_chemical_formula_sum              "V2 Ga1 Se6"
_cell_length_a       6.290769566716132
_cell_length_b       6.290769777365439
_cell_length_c       6.290770014730099
_cell_angle_alpha    59.99999933953833
_cell_angle_beta     59.99999945731392
_cell_angle_gamma    60.000000522126115

_space_group_name_H-M_alt    "P 1"
_space_group_IT_number       1

loop_
  _space_group_symop_operation_xyz
  'x, y, z'

loop_
  _atom_site_type_symbol
  _atom_site_label
  _atom_site_symmetry_multiplicity
  _atom_site_fract_x
  _atom_site_fract_y
  _atom_site_fract_z
  _atom_site_occupancy
  V   V1        1.0  0.24999990652747295  0.25000021084743196  0.24999991765422996  1.0000
  V   V2        1.0  0.7499999734004645  0.7499999316612127  0.7499999749045786  1.0000
  Ga  Ga1       1.0  0.9999999686270444  1.0513216245670788e-07  1.5546568929851488e-07  1.0000
  Se  Se1       1.0  0.27621463191640194  0.2762145924365514  0.723785407979746  1.0000
  Se  Se2       1.0  0.7237853786727101  0.7237853398077686  0.27621476441484666  1.0000
  Se  Se3       1.0  0.723785497298516  0.27621459250547425  0.27621451844659817  1.0000
  Se  Se4       1.0  0.27621466699625946  0.7237852365535756  0.7237853981913743  1.0000
  Se  Se5       1.0  0.27621458837171803  0.723785271682273  0.27621452744008834  1.0000
  Se  Se6       1.0  0.7237853727307484  0.27621472091569566  0.7237853438497258  1.0000
