data_image0
_chemical_formula_structural       V2GaI6
_chemical_formula_sum              "V2 Ga1 I6"
_cell_length_a       7.61652487225702
_cell_length_b       7.6165249321726085
_cell_length_c       7.6165249592252104
_cell_angle_alpha    59.99999943028459
_cell_angle_beta     59.99999987484935
_cell_angle_gamma    59.99999985262008

_space_group_name_H-M_alt    "P 1"
_space_group_IT_number       1

loop_
  _space_group_symop_operation_xyz
  'x, y, z'

loop_
  _atom_site_type_symbol
  _atom_site_label
  _atom_site_symmetry_multiplicity
  _atom_site_fract_x
  _atom_site_fract_y
  _atom_site_fract_z
  _atom_site_occupancy
  V   V1        1.0  0.2500000143040617  0.24999998846627117  0.24999998778499363  1.0000
  V   V2        1.0  0.7499999807385029  0.7499999927349845  0.7500000070324306  1.0000
  Ga  Ga1       1.0  0.9999999782235681  2.894418123359163e-08  0.9999999951031905  1.0000
  I   I1        1.0  0.25582271051430444  0.25582272495849123  0.7441773095509454  1.0000
  I   I2        1.0  0.7441772805923096  0.7441772771468951  0.2558227148574955  1.0000
  I   I3        1.0  0.7441773093373357  0.25582272659956057  0.2558226892344066  1.0000
  I   I4        1.0  0.25582273314670806  0.7441772578177153  0.7441772750025292  1.0000
  I   I5        1.0  0.25582273795819066  0.7441772623953523  0.2558227319965277  1.0000
  I   I6        1.0  0.7441772536844268  0.2558227381020239  0.7441772995125899  1.0000
