data_image0
_chemical_formula_structural       V2GaBr6
_chemical_formula_sum              "V2 Ga1 Br6"
_cell_length_a       6.9109165891097675
_cell_length_b       6.910916407149793
_cell_length_c       6.910916469809357
_cell_angle_alpha    59.99999989078337
_cell_angle_beta     60.00000076216175
_cell_angle_gamma    60.00000061859865

_space_group_name_H-M_alt    "P 1"
_space_group_IT_number       1

loop_
  _space_group_symop_operation_xyz
  'x, y, z'

loop_
  _atom_site_type_symbol
  _atom_site_label
  _atom_site_symmetry_multiplicity
  _atom_site_fract_x
  _atom_site_fract_y
  _atom_site_fract_z
  _atom_site_occupancy
  V   V1        1.0  0.2500000289874118  0.25000002266499227  0.2499999380108625  1.0000
  V   V2        1.0  0.7500000099358721  0.7500000183736892  0.749999980092425  1.0000
  Ga  Ga1       1.0  2.3695757591269606e-08  0.999999984050301  4.6771483845295875e-08  1.0000
  Br  Br1       1.0  0.2550331257866352  0.2550331477697667  0.7449668712202561  1.0000
  Br  Br2       1.0  0.74496685516417  0.7449668666860821  0.25503315427506135  1.0000
  Br  Br3       1.0  0.7449668412999761  0.2550331316029848  0.25503317923233154  1.0000
  Br  Br4       1.0  0.2550331581487629  0.744966847409088  0.7449668272431711  1.0000
  Br  Br5       1.0  0.2550331203779085  0.7449668626534128  0.25503314956786843  1.0000
  Br  Br6       1.0  0.7449668282536807  0.25503312344741463  0.7449668512790961  1.0000
