data_image0
_chemical_formula_structural       V2GaI6
_chemical_formula_sum              "V2 Ga1 I6"
_cell_length_a       7.616524800831505
_cell_length_b       7.616524652288494
_cell_length_c       7.616524850165027
_cell_angle_alpha    59.99999969654341
_cell_angle_beta     59.99999965259368
_cell_angle_gamma    59.99999985094938

_space_group_name_H-M_alt    "P 1"
_space_group_IT_number       1

loop_
  _space_group_symop_operation_xyz
  'x, y, z'

loop_
  _atom_site_type_symbol
  _atom_site_label
  _atom_site_symmetry_multiplicity
  _atom_site_fract_x
  _atom_site_fract_y
  _atom_site_fract_z
  _atom_site_occupancy
  V   V1        1.0  0.24999999018299796  0.2500000192695982  0.2500000085345918  1.0000
  V   V2        1.0  0.7499999586361069  0.7499999934883891  0.7500000151418365  1.0000
  Ga  Ga1       1.0  1.249622633911182e-08  0.9999999807038783  0.9999999732024488  1.0000
  I   I1        1.0  0.2558227206370017  0.25582268846685435  0.7441773014955928  1.0000
  I   I2        1.0  0.7441772774312989  0.7441772856988901  0.25582271422648917  1.0000
  I   I3        1.0  0.7441772980077284  0.2558227243024906  0.25582271190193595  1.0000
  I   I4        1.0  0.25582271223357195  0.7441773270477401  0.7441772683319468  1.0000
  I   I5        1.0  0.255822751041242  0.7441772626198505  0.2558227003886818  1.0000
  I   I6        1.0  0.7441772787720704  0.2558227163699248  0.7441773088652917  1.0000
