data_image0
_chemical_formula_structural       V2GaCl6
_chemical_formula_sum              "V2 Ga1 Cl6"
_cell_length_a       6.543810570659763
_cell_length_b       6.54381069513897
_cell_length_c       6.5438107018317675
_cell_angle_alpha    59.999998904593504
_cell_angle_beta     59.999999929190544
_cell_angle_gamma    60.00000017302857

_space_group_name_H-M_alt    "P 1"
_space_group_IT_number       1

loop_
  _space_group_symop_operation_xyz
  'x, y, z'

loop_
  _atom_site_type_symbol
  _atom_site_label
  _atom_site_symmetry_multiplicity
  _atom_site_fract_x
  _atom_site_fract_y
  _atom_site_fract_z
  _atom_site_occupancy
  V   V1        1.0  0.24999991075063488  0.24999998028768863  0.2500000595668519  1.0000
  V   V2        1.0  0.7500000209103149  0.7499999483494992  0.7500000459097507  1.0000
  Ga  Ga1       1.0  0.9999999836020488  0.9999999962567835  3.1464845725337485e-08  1.0000
  Cl  Cl1       1.0  0.25250990118824174  0.25250983512756964  0.7474901092723368  1.0000
  Cl  Cl2       1.0  0.7474901571454652  0.7474902058061033  0.2525098140650201  1.0000
  Cl  Cl3       1.0  0.7474901569679314  0.25250990463946116  0.2525098251521998  1.0000
  Cl  Cl4       1.0  0.25250981126571703  0.7474901419090351  0.7474901633501978  1.0000
  Cl  Cl5       1.0  0.25250986046265433  0.7474901283858727  0.2525098507603906  1.0000
  Cl  Cl6       1.0  0.7474902035042416  0.2525098638859906  0.7474901002039235  1.0000
