data_image0
_chemical_formula_structural       V2GaBr6
_chemical_formula_sum              "V2 Ga1 Br6"
_cell_length_a       6.910916676175027
_cell_length_b       6.910916462161304
_cell_length_c       6.910916560824158
_cell_angle_alpha    59.99999978486134
_cell_angle_beta     60.000000414810344
_cell_angle_gamma    60.00000011941265

_space_group_name_H-M_alt    "P 1"
_space_group_IT_number       1

loop_
  _space_group_symop_operation_xyz
  'x, y, z'

loop_
  _atom_site_type_symbol
  _atom_site_label
  _atom_site_symmetry_multiplicity
  _atom_site_fract_x
  _atom_site_fract_y
  _atom_site_fract_z
  _atom_site_occupancy
  V   V1        1.0  0.25000002146595435  0.2500000338242627  0.24999996528666776  1.0000
  V   V2        1.0  0.750000010021931  0.7499999738751941  0.7500000085515572  1.0000
  Ga  Ga1       1.0  2.0927426234843352e-08  1.2405321763818127e-08  0.9999999804396539  1.0000
  Br  Br1       1.0  0.2550331375490583  0.25503315101991963  0.7449668789789242  1.0000
  Br  Br2       1.0  0.74496685404148  0.7449668460464042  0.2550331649811089  1.0000
  Br  Br3       1.0  0.7449668371593766  0.2550331716221012  0.2550331539692797  1.0000
  Br  Br4       1.0  0.2550331357479111  0.7449668413939216  0.7449668479479472  1.0000
  Br  Br5       1.0  0.25503312174641685  0.744966850344768  0.2550331665400046  1.0000
  Br  Br6       1.0  0.74496685688285  0.25503312545528983  0.744966826525452  1.0000
