data_image0
_chemical_formula_structural       V2GeBr6
_chemical_formula_sum              "V2 Ge1 Br6"
_cell_length_a       6.945077915871874
_cell_length_b       6.94507788362945
_cell_length_c       6.9450780338414475
_cell_angle_alpha    60.00000012550634
_cell_angle_beta     60.00000007432195
_cell_angle_gamma    60.00000055141437

_space_group_name_H-M_alt    "P 1"
_space_group_IT_number       1

loop_
  _space_group_symop_operation_xyz
  'x, y, z'

loop_
  _atom_site_type_symbol
  _atom_site_label
  _atom_site_symmetry_multiplicity
  _atom_site_fract_x
  _atom_site_fract_y
  _atom_site_fract_z
  _atom_site_occupancy
  V   V1        1.0  0.24999986793120565  0.250000019135931  0.2500000625805082  1.0000
  V   V2        1.0  0.7499999767414259  0.7500000009766993  0.7500000539609354  1.0000
  Ge  Ge1       1.0  2.564523893715589e-08  0.9999999629670934  1.4333045513583664e-08  1.0000
  Br  Br1       1.0  0.2536238553387809  0.25362385489705097  0.746376150040124  1.0000
  Br  Br2       1.0  0.7463761850530036  0.7463761317096167  0.2536238263601112  1.0000
  Br  Br3       1.0  0.7463761680885554  0.2536238527029735  0.25362384676111277  1.0000
  Br  Br4       1.0  0.25362387248763446  0.7463761533018837  0.7463761241674309  1.0000
  Br  Br5       1.0  0.253623880677046  0.7463761392080369  0.2536238249389461  1.0000
  Br  Br6       1.0  0.7463761663479029  0.25362387737765035  0.746376102917956  1.0000
