data_image0
_chemical_formula_structural       V2GeI6
_chemical_formula_sum              "V2 Ge1 I6"
_cell_length_a       7.669101307349096
_cell_length_b       7.669101229971448
_cell_length_c       7.669101378412239
_cell_angle_alpha    60.000000467261884
_cell_angle_beta     59.99999977119482
_cell_angle_gamma    59.99999961085803

_space_group_name_H-M_alt    "P 1"
_space_group_IT_number       1

loop_
  _space_group_symop_operation_xyz
  'x, y, z'

loop_
  _atom_site_type_symbol
  _atom_site_label
  _atom_site_symmetry_multiplicity
  _atom_site_fract_x
  _atom_site_fract_y
  _atom_site_fract_z
  _atom_site_occupancy
  V   V1        1.0  0.24999999933273825  0.2500000149180239  0.25000000434507236  1.0000
  V   V2        1.0  0.7500000164470543  0.7499999984414714  0.7499999356917356  1.0000
  Ge  Ge1       1.0  9.033918025366043e-09  0.0  0.9999999967869747  1.0000
  I   I1        1.0  0.2609588712696747  0.26095888830981473  0.7390411097155173  1.0000
  I   I2        1.0  0.7390411442517885  0.7390411122737919  0.26095889421148405  1.0000
  I   I3        1.0  0.7390411194512442  0.26095886554780306  0.26095888287900587  1.0000
  I   I4        1.0  0.2609588442543549  0.7390411414237484  0.7390411372422865  1.0000
  I   I5        1.0  0.26095887286008085  0.7390411132038376  0.2609588756359717  1.0000
  I   I6        1.0  0.7390411306318286  0.260958860231004  0.7390411570077251  1.0000
