data_image0
_chemical_formula_structural       V2GeF6
_chemical_formula_sum              "V2 Ge1 F6"
_cell_length_a       4.646200475934801
_cell_length_b       4.646200521292705
_cell_length_c       4.646200887014831
_cell_angle_alpha    59.99999726631683
_cell_angle_beta     60.000000823057235
_cell_angle_gamma    60.00000037515973

_space_group_name_H-M_alt    "P 1"
_space_group_IT_number       1

loop_
  _space_group_symop_operation_xyz
  'x, y, z'

loop_
  _atom_site_type_symbol
  _atom_site_label
  _atom_site_symmetry_multiplicity
  _atom_site_fract_x
  _atom_site_fract_y
  _atom_site_fract_z
  _atom_site_occupancy
  V   V1        1.0  0.24999971377202865  0.24999974164636016  0.25000010619175095  1.0000
  V   V2        1.0  0.7499995953253078  0.7500000921876413  0.7500003187012728  1.0000
  Ge  Ge1       1.0  1.0591417224022791e-06  2.8205350108733477e-07  0.9999993616868593  1.0000
  F   F1        1.0  0.2650753669326284  0.26507586184801535  0.7349241911883164  1.0000
  F   F2        1.0  0.7349249731283463  0.7349249499471494  0.26507523354692686  1.0000
  F   F3        1.0  0.7349243907130127  0.2650751114023833  0.2650753634286442  1.0000
  F   F4        1.0  0.2650752770196295  0.7349244219260466  0.7349247827331766  1.0000
  F   F5        1.0  0.26507506891879296  0.7349242473902641  0.2650757115925382  1.0000
  F   F6        1.0  0.734924518682603  0.2650753175703228  0.7349249796744786  1.0000
