data_image0
_chemical_formula_structural       V2HfCl6
_chemical_formula_sum              "V2 Hf1 Cl6"
_cell_length_a       6.7933309951495975
_cell_length_b       6.793330732555581
_cell_length_c       6.793331029711573
_cell_angle_alpha    59.99999959144903
_cell_angle_beta     60.000003481573565
_cell_angle_gamma    60.00000084197961

_space_group_name_H-M_alt    "P 1"
_space_group_IT_number       1

loop_
  _space_group_symop_operation_xyz
  'x, y, z'

loop_
  _atom_site_type_symbol
  _atom_site_label
  _atom_site_symmetry_multiplicity
  _atom_site_fract_x
  _atom_site_fract_y
  _atom_site_fract_z
  _atom_site_occupancy
  V   V1        1.0  0.2500000802102493  0.2500001705733286  0.24999980620573117  1.0000
  V   V2        1.0  0.7500000721870985  0.7500002827563046  0.7499992713933551  1.0000
  Hf  Hf1       1.0  1.8320268122409635e-08  0.9999999603370006  3.2751844391487906e-08  1.0000
  Cl  Cl1       1.0  0.2538991268094335  0.2538992786506545  0.7461009299592107  1.0000
  Cl  Cl2       1.0  0.746100734611782  0.746100686102932  0.25389955164593403  1.0000
  Cl  Cl3       1.0  0.7461006800506824  0.2538990473372483  0.25389940176888165  1.0000
  Cl  Cl4       1.0  0.25389932235019713  0.7461007443414334  0.7461007764529631  1.0000
  Cl  Cl5       1.0  0.2538991473502631  0.7461007255041867  0.25389938409096996  1.0000
  Cl  Cl6       1.0  0.7461007949228237  0.25389912927472047  0.746100855942029  1.0000
