data_image0
_chemical_formula_structural       V2HfF6
_chemical_formula_sum              "V2 Hf1 F6"
_cell_length_a       6.201723311978051
_cell_length_b       6.201726914181517
_cell_length_c       6.201731471678796
_cell_angle_alpha    59.99989984410115
_cell_angle_beta     59.99991564359155
_cell_angle_gamma    59.99983026564557

_space_group_name_H-M_alt    "P 1"
_space_group_IT_number       1

loop_
  _space_group_symop_operation_xyz
  'x, y, z'

loop_
  _atom_site_type_symbol
  _atom_site_label
  _atom_site_symmetry_multiplicity
  _atom_site_fract_x
  _atom_site_fract_y
  _atom_site_fract_z
  _atom_site_occupancy
  V   V1        1.0  0.24983044396240978  0.2501425165065468  0.2500181082907268  1.0000
  V   V2        1.0  0.7499205182747068  0.7501289697480215  0.7500195840355366  1.0000
  Hf  Hf1       1.0  1.8416736948353409e-06  0.9999976756038553  0.9999975018044835  1.0000
  F   F1        1.0  0.23293839576785583  0.2328749731588702  0.7670873969758135  1.0000
  F   F2        1.0  0.7671693950299502  0.7670150767846281  0.23288878930190507  1.0000
  F   F3        1.0  0.7671425083824619  0.2328693233783519  0.23293780229799685  1.0000
  F   F4        1.0  0.23292266086462696  0.7670523715285147  0.7671159876126555  1.0000
  F   F5        1.0  0.23293821845869828  0.7670652985692192  0.23288022422388852  1.0000
  F   F6        1.0  0.7671343363228608  0.23285564991750943  0.7670541398430276  1.0000
