data_image0
_chemical_formula_structural       V2HfBr6
_chemical_formula_sum              "V2 Hf1 Br6"
_cell_length_a       7.167541840927998
_cell_length_b       7.167541762846981
_cell_length_c       7.16754179225208
_cell_angle_alpha    59.99999976572198
_cell_angle_beta     59.99999927385733
_cell_angle_gamma    60.00000037868355

_space_group_name_H-M_alt    "P 1"
_space_group_IT_number       1

loop_
  _space_group_symop_operation_xyz
  'x, y, z'

loop_
  _atom_site_type_symbol
  _atom_site_label
  _atom_site_symmetry_multiplicity
  _atom_site_fract_x
  _atom_site_fract_y
  _atom_site_fract_z
  _atom_site_occupancy
  V   V1        1.0  0.25000000096205066  0.24999995469123362  0.2500000137553191  1.0000
  V   V2        1.0  0.7499999786371186  0.750000009316404  0.7500000016967996  1.0000
  Hf  Hf1       1.0  0.9999999988440748  3.246601603896729e-08  2.482274721911101e-09  1.0000
  Br  Br1       1.0  0.25371907073350186  0.2537190166977988  0.7462809707001589  1.0000
  Br  Br2       1.0  0.7462809473345383  0.7462809575622653  0.2537190510852371  1.0000
  Br  Br3       1.0  0.746280951899  0.2537190530046049  0.2537190600654546  1.0000
  Br  Br4       1.0  0.25371902634879545  0.7462809537214747  0.7462809472597361  1.0000
  Br  Br5       1.0  0.2537190613185985  0.7462809644633398  0.25371902629033516  1.0000
  Br  Br6       1.0  0.746280958620095  0.25371905251516635  0.7462809285548022  1.0000
