data_image0
_chemical_formula_structural       V2HfI6
_chemical_formula_sum              "V2 Hf1 I6"
_cell_length_a       7.837530176195117
_cell_length_b       7.837530163512913
_cell_length_c       7.837530278802532
_cell_angle_alpha    60.000000630194975
_cell_angle_beta     59.99999942308834
_cell_angle_gamma    60.00000032313635

_space_group_name_H-M_alt    "P 1"
_space_group_IT_number       1

loop_
  _space_group_symop_operation_xyz
  'x, y, z'

loop_
  _atom_site_type_symbol
  _atom_site_label
  _atom_site_symmetry_multiplicity
  _atom_site_fract_x
  _atom_site_fract_y
  _atom_site_fract_z
  _atom_site_occupancy
  V   V1        1.0  0.2499999775992434  0.2500000150338284  0.24999999156310534  1.0000
  V   V2        1.0  0.7499999854202173  0.7500000154108156  0.7500000078803319  1.0000
  Hf  Hf1       1.0  0.9999999960269625  0.9999999765599973  2.1361992722500334e-08  1.0000
  I   I1        1.0  0.2537076612685905  0.25370762221145404  0.7462923628301324  1.0000
  I   I2        1.0  0.7462923430338376  0.7462923551025173  0.2537076616758389  1.0000
  I   I3        1.0  0.7462923862698929  0.25370762437871774  0.2537076500580549  1.0000
  I   I4        1.0  0.2537076616211697  0.7462923591859207  0.7462923265618472  1.0000
  I   I5        1.0  0.2537076292920822  0.7462923964366026  0.25370766124602473  1.0000
  I   I6        1.0  0.7462923527908621  0.2537076386960421  0.7462923212180217  1.0000
