data_image0
_chemical_formula_structural       V2IrI6
_chemical_formula_sum              "V2 Ir1 I6"
_cell_length_a       7.51969029944318
_cell_length_b       7.519690335781056
_cell_length_c       7.519690387577927
_cell_angle_alpha    59.99999969459194
_cell_angle_beta     60.00000013135631
_cell_angle_gamma    60.00000001400889

_space_group_name_H-M_alt    "P 1"
_space_group_IT_number       1

loop_
  _space_group_symop_operation_xyz
  'x, y, z'

loop_
  _atom_site_type_symbol
  _atom_site_label
  _atom_site_symmetry_multiplicity
  _atom_site_fract_x
  _atom_site_fract_y
  _atom_site_fract_z
  _atom_site_occupancy
  V   V1        1.0  0.2500000185500101  0.25000000235732783  0.24999997923791714  1.0000
  V   V2        1.0  0.7499999766067961  0.7500000184730035  0.7500000220688536  1.0000
  Ir  Ir1       1.0  0.9999999633166515  1.7915888873918515e-08  0.9999999907659418  1.0000
  I   I1        1.0  0.25068254392655226  0.25068254418371577  0.7493174584332771  1.0000
  I   I2        1.0  0.7493174575588266  0.7493174668743127  0.2506825166686772  1.0000
  I   I3        1.0  0.749317467700075  0.2506825354864318  0.2506825225601484  1.0000
  I   I4        1.0  0.25068255213496904  0.7493174527695562  0.7493174720559393  1.0000
  I   I5        1.0  0.25068254381197635  0.7493174607008215  0.2506825449156882  1.0000
  I   I6        1.0  0.7493174806457573  0.25068249986697444  0.7493174958090423  1.0000
