data_image0
_chemical_formula_structural       V2IrI6
_chemical_formula_sum              "V2 Ir1 I6"
_cell_length_a       7.519715508238301
_cell_length_b       7.519715551989654
_cell_length_c       7.51971551708098
_cell_angle_alpha    60.00000022612579
_cell_angle_beta     59.99999980980655
_cell_angle_gamma    59.9999999733293

_space_group_name_H-M_alt    "P 1"
_space_group_IT_number       1

loop_
  _space_group_symop_operation_xyz
  'x, y, z'

loop_
  _atom_site_type_symbol
  _atom_site_label
  _atom_site_symmetry_multiplicity
  _atom_site_fract_x
  _atom_site_fract_y
  _atom_site_fract_z
  _atom_site_occupancy
  V   V1        1.0  0.2500000109082801  0.249999994634166  0.2499999826458973  1.0000
  V   V2        1.0  0.7500000052549997  0.7500000018183266  0.7500000032485247  1.0000
  Ir  Ir1       1.0  0.9999999905071725  1.4658405335050074e-08  2.4013961978900807e-08  1.0000
  I   I1        1.0  0.25068151145234735  0.25068148250682876  0.7493185258666691  1.0000
  I   I2        1.0  0.7493184810574003  0.749318492772412  0.2506815183467584  1.0000
  I   I3        1.0  0.749318535962099  0.2506814761184217  0.25068148606787094  1.0000
  I   I4        1.0  0.2506814988302268  0.7493184828737021  0.7493184999333496  1.0000
  I   I5        1.0  0.2506814646585183  0.7493185277823984  0.2506814860925549  1.0000
  I   I6        1.0  0.7493184986275663  0.250681530561139  0.7493184753473793  1.0000
