data_image0
_chemical_formula_structural       V2IrBr6
_chemical_formula_sum              "V2 Ir1 Br6"
_cell_length_a       6.997383921626276
_cell_length_b       6.9973839802065685
_cell_length_c       6.997383894287666
_cell_angle_alpha    59.999999567740794
_cell_angle_beta     60.000000627834
_cell_angle_gamma    60.00000005670197

_space_group_name_H-M_alt    "P 1"
_space_group_IT_number       1

loop_
  _space_group_symop_operation_xyz
  'x, y, z'

loop_
  _atom_site_type_symbol
  _atom_site_label
  _atom_site_symmetry_multiplicity
  _atom_site_fract_x
  _atom_site_fract_y
  _atom_site_fract_z
  _atom_site_occupancy
  V   V1        1.0  0.24999993781354946  0.2500000071064535  0.2500000287351885  1.0000
  V   V2        1.0  0.7500000038959024  0.7500000143182026  0.7499999330269804  1.0000
  Ir  Ir1       1.0  2.0668824803444306e-08  1.2252027031661782e-08  3.0700056483752654e-08  1.0000
  Br  Br1       1.0  0.24892645722518855  0.24892644375094794  0.7510735454016337  1.0000
  Br  Br2       1.0  0.7510735590602412  0.7510735321661767  0.2489264504159006  1.0000
  Br  Br3       1.0  0.7510735702652617  0.2489264380281274  0.24892648437203868  1.0000
  Br  Br4       1.0  0.2489264869917634  0.7510735238866797  0.7510735322593897  1.0000
  Br  Br5       1.0  0.24892642158856004  0.7510735541095734  0.24892647987551675  1.0000
  Br  Br6       1.0  0.751073543806967  0.24892646556479237  0.7510735295120866  1.0000
