data_image0
_chemical_formula_structural       V2IrCl6
_chemical_formula_sum              "V2 Ir1 Cl6"
_cell_length_a       6.653127040273136
_cell_length_b       6.653127051346503
_cell_length_c       6.653127039290526
_cell_angle_alpha    59.999999107380795
_cell_angle_beta     59.99999914897165
_cell_angle_gamma    60.000000165844114

_space_group_name_H-M_alt    "P 1"
_space_group_IT_number       1

loop_
  _space_group_symop_operation_xyz
  'x, y, z'

loop_
  _atom_site_type_symbol
  _atom_site_label
  _atom_site_symmetry_multiplicity
  _atom_site_fract_x
  _atom_site_fract_y
  _atom_site_fract_z
  _atom_site_occupancy
  V   V1        1.0  0.24999976993804712  0.2500001374086895  0.2500000129020105  1.0000
  V   V2        1.0  0.7499998529863676  0.7499999906700502  0.7500001086635044  1.0000
  Ir  Ir1       1.0  3.236231920571351e-08  1.8408563025713266e-09  0.9999999768862016  1.0000
  Cl  Cl1       1.0  0.24859881290061075  0.24859847456927675  0.7514013559800643  1.0000
  Cl  Cl2       1.0  0.751401362099435  0.7514013718585008  0.24859866945248288  1.0000
  Cl  Cl3       1.0  0.7514014344326913  0.24859871992296698  0.2485985286120324  1.0000
  Cl  Cl4       1.0  0.2485986319599516  0.7514012700915771  0.751401426723991  1.0000
  Cl  Cl5       1.0  0.24859864722885924  0.7514013622559623  0.24859862923819334  1.0000
  Cl  Cl6       1.0  0.7514014580292215  0.24859868298426185  0.7514012745431125  1.0000
