data_image0
_chemical_formula_structural       V2IrF6
_chemical_formula_sum              "V2 Ir1 F6"
_cell_length_a       5.125078267918453
_cell_length_b       5.12507875776433
_cell_length_c       5.125078465650654
_cell_angle_alpha    60.00000072232642
_cell_angle_beta     59.99999738294094
_cell_angle_gamma    59.9999971377165

_space_group_name_H-M_alt    "P 1"
_space_group_IT_number       1

loop_
  _space_group_symop_operation_xyz
  'x, y, z'

loop_
  _atom_site_type_symbol
  _atom_site_label
  _atom_site_symmetry_multiplicity
  _atom_site_fract_x
  _atom_site_fract_y
  _atom_site_fract_z
  _atom_site_occupancy
  V   V1        1.0  0.2499996311505325  0.24999965427807208  0.25000029151671604  1.0000
  V   V2        1.0  0.7500004962218421  0.7499993117317014  0.7499999962757458  1.0000
  Ir  Ir1       1.0  0.9999999069848894  1.9117675287746802e-07  0.9999999216513336  1.0000
  F   F1        1.0  0.2720636833573975  0.2720640840883245  0.7279361802690593  1.0000
  F   F2        1.0  0.7279362604715898  0.7279362368866579  0.2720637266873938  1.0000
  F   F3        1.0  0.7279363966114878  0.2720638984750052  0.27206381917636263  1.0000
  F   F4        1.0  0.2720636865663111  0.7279363221321777  0.7279360682895839  1.0000
  F   F5        1.0  0.27206374115246285  0.7279361633330877  0.27206380436052074  1.0000
  F   F6        1.0  0.7279362110287836  0.2720641528624753  0.7279361339797361  1.0000
