data_image0
_chemical_formula_structural       V2IrF6
_chemical_formula_sum              "V2 Ir1 F6"
_cell_length_a       5.125017358305549
_cell_length_b       5.125017492111177
_cell_length_c       5.125017545412656
_cell_angle_alpha    60.00000217024267
_cell_angle_beta     60.000000355051164
_cell_angle_gamma    59.999999845132514

_space_group_name_H-M_alt    "P 1"
_space_group_IT_number       1

loop_
  _space_group_symop_operation_xyz
  'x, y, z'

loop_
  _atom_site_type_symbol
  _atom_site_label
  _atom_site_symmetry_multiplicity
  _atom_site_fract_x
  _atom_site_fract_y
  _atom_site_fract_z
  _atom_site_occupancy
  V   V1        1.0  0.2500002305083825  0.24999966305520915  0.2500001501489565  1.0000
  V   V2        1.0  0.7500002793305086  0.7500001649166649  0.7499996354994389  1.0000
  Ir  Ir1       1.0  0.9999999223492632  0.9999999761026237  9.565195036890803e-08  1.0000
  F   F1        1.0  0.2720578346524448  0.27205788420044813  0.7279421381440425  1.0000
  F   F2        1.0  0.7279420754801432  0.7279421612375873  0.272057940087488  1.0000
  F   F3        1.0  0.7279419838520301  0.2720578199192902  0.2720580502080152  1.0000
  F   F4        1.0  0.27205783110507403  0.7279422541955988  0.7279419266391447  1.0000
  F   F5        1.0  0.27205781056557404  0.727942179370941  0.2720580150377464  1.0000
  F   F6        1.0  0.7279420795627569  0.27205785172866614  0.7279420159751029  1.0000
