data_image0
_chemical_formula_structural       V2IrBr6
_chemical_formula_sum              "V2 Ir1 Br6"
_cell_length_a       6.9973390473687225
_cell_length_b       6.997338721190679
_cell_length_c       6.997338845557908
_cell_angle_alpha    60.000000905600146
_cell_angle_beta     60.00000077552033
_cell_angle_gamma    60.00000064553642

_space_group_name_H-M_alt    "P 1"
_space_group_IT_number       1

loop_
  _space_group_symop_operation_xyz
  'x, y, z'

loop_
  _atom_site_type_symbol
  _atom_site_label
  _atom_site_symmetry_multiplicity
  _atom_site_fract_x
  _atom_site_fract_y
  _atom_site_fract_z
  _atom_site_occupancy
  V   V1        1.0  0.25000001614435735  0.24999993681320687  0.25000007848585976  1.0000
  V   V2        1.0  0.7499999891230456  0.749999978468508  0.7499999753056299  1.0000
  Ir  Ir1       1.0  0.9999999931818244  4.0256921705922816e-08  0.999999974705939  1.0000
  Br  Br1       1.0  0.24892705780984825  0.24892707588284327  0.7510729305459002  1.0000
  Br  Br2       1.0  0.751072969259029  0.7510729076606086  0.24892707821398435  1.0000
  Br  Br3       1.0  0.751072929118189  0.24892707271214565  0.2489270523883093  1.0000
  Br  Br4       1.0  0.2489270622954853  0.751072963340334  0.7510729050712218  1.0000
  Br  Br5       1.0  0.2489270581121385  0.7510729142427274  0.24892707204240705  1.0000
  Br  Br6       1.0  0.7510729287513428  0.24892710080614122  0.7510729324927795  1.0000
