data_image0
_chemical_formula_structural       V2IrCl6
_chemical_formula_sum              "V2 Ir1 Cl6"
_cell_length_a       6.653056586753098
_cell_length_b       6.653056417437104
_cell_length_c       6.653056637954841
_cell_angle_alpha    59.999999908589146
_cell_angle_beta     60.00000056033745
_cell_angle_gamma    60.000001714275484

_space_group_name_H-M_alt    "P 1"
_space_group_IT_number       1

loop_
  _space_group_symop_operation_xyz
  'x, y, z'

loop_
  _atom_site_type_symbol
  _atom_site_label
  _atom_site_symmetry_multiplicity
  _atom_site_fract_x
  _atom_site_fract_y
  _atom_site_fract_z
  _atom_site_occupancy
  V   V1        1.0  0.2500000349197586  0.2499999772289733  0.24999997647493452  1.0000
  V   V2        1.0  0.7499999226091218  0.7499999574591732  0.7500000196383012  1.0000
  Ir  Ir1       1.0  1.2446939275163905e-08  1.472700459964512e-08  5.95291902227507e-09  1.0000
  Cl  Cl1       1.0  0.24860241464672886  0.24860239602320083  0.7513975938825672  1.0000
  Cl  Cl2       1.0  0.7513975893912201  0.7513976178225947  0.24860242056301077  1.0000
  Cl  Cl3       1.0  0.7513976036144094  0.24860240030895528  0.24860240357590363  1.0000
  Cl  Cl4       1.0  0.2486024416927968  0.7513975730375795  0.7513975954539905  1.0000
  Cl  Cl5       1.0  0.24860239768815018  0.751397609356665  0.24860240574370754  1.0000
  Cl  Cl6       1.0  0.7513975815250757  0.24860243210226252  0.7513975952831178  1.0000
