data_image0
_chemical_formula_structural       V2MnI6
_chemical_formula_sum              "V2 Mn1 I6"
_cell_length_a       7.497738348821247
_cell_length_b       7.497738430648202
_cell_length_c       7.497738515983687
_cell_angle_alpha    59.99999943135871
_cell_angle_beta     59.99999888122277
_cell_angle_gamma    59.99999982733255

_space_group_name_H-M_alt    "P 1"
_space_group_IT_number       1

loop_
  _space_group_symop_operation_xyz
  'x, y, z'

loop_
  _atom_site_type_symbol
  _atom_site_label
  _atom_site_symmetry_multiplicity
  _atom_site_fract_x
  _atom_site_fract_y
  _atom_site_fract_z
  _atom_site_occupancy
  V   V1        1.0  0.2500000365337445  0.2499999259043383  0.250000021966619  1.0000
  V   V2        1.0  0.7500000170530706  0.750000027636332  0.7499999605375698  1.0000
  Mn  Mn1       1.0  0.9999999575934839  1.633485723140202e-08  6.505151389667403e-08  1.0000
  I   I1        1.0  0.2501771717110156  0.2501772110093581  0.7498228160937472  1.0000
  I   I2        1.0  0.7498228438705814  0.7498228242055988  0.2501771499108495  1.0000
  I   I3        1.0  0.7498228058146209  0.2501771612216858  0.2501771997867092  1.0000
  I   I4        1.0  0.2501772149637233  0.7498228168212704  0.7498227922055144  1.0000
  I   I5        1.0  0.25017717707642156  0.7498228253571878  0.25017718413591866  1.0000
  I   I6        1.0  0.7498227706649166  0.2501771869889686  0.749822824555737  1.0000
