data_image0
_chemical_formula_structural       V2MnCl6
_chemical_formula_sum              "V2 Mn1 Cl6"
_cell_length_a       6.499106491404515
_cell_length_b       6.499106525280204
_cell_length_c       6.4991064848005315
_cell_angle_alpha    60.00000020858605
_cell_angle_beta     60.00000001450275
_cell_angle_gamma    59.99999964554428

_space_group_name_H-M_alt    "P 1"
_space_group_IT_number       1

loop_
  _space_group_symop_operation_xyz
  'x, y, z'

loop_
  _atom_site_type_symbol
  _atom_site_label
  _atom_site_symmetry_multiplicity
  _atom_site_fract_x
  _atom_site_fract_y
  _atom_site_fract_z
  _atom_site_occupancy
  V   V1        1.0  0.24999988285680322  0.2500000690774115  0.2500000482510471  1.0000
  V   V2        1.0  0.7500000057808938  0.7500000470512695  0.7499999600726908  1.0000
  Mn  Mn1       1.0  2.1948639866205327e-08  0.999999998115518  0.999999986890575  1.0000
  Cl  Cl1       1.0  0.24802335346008458  0.24802326645750972  0.7519767000422247  1.0000
  Cl  Cl2       1.0  0.7519767045960735  0.7519766612229789  0.24802331779637876  1.0000
  Cl  Cl3       1.0  0.7519767252054865  0.2480233330307279  0.24802327696169726  1.0000
  Cl  Cl4       1.0  0.24802330874652478  0.7519767096031578  0.7519766662174934  1.0000
  Cl  Cl5       1.0  0.24802328727222572  0.7519766304039623  0.2480233580949165  1.0000
  Cl  Cl6       1.0  0.751976718110895  0.24802329539204482  0.7519766762517351  1.0000
