data_image0
_chemical_formula_structural       V2MnF6
_chemical_formula_sum              "V2 Mn1 F6"
_cell_length_a       6.419060590463115
_cell_length_b       6.8224132692985435
_cell_length_c       5.4541152677890326
_cell_angle_alpha    49.031007486311445
_cell_angle_beta     62.146407842421375
_cell_angle_gamma    51.38997087371857

_space_group_name_H-M_alt    "P 1"
_space_group_IT_number       1

loop_
  _space_group_symop_operation_xyz
  'x, y, z'

loop_
  _atom_site_type_symbol
  _atom_site_label
  _atom_site_symmetry_multiplicity
  _atom_site_fract_x
  _atom_site_fract_y
  _atom_site_fract_z
  _atom_site_occupancy
  V   V1        1.0  0.3231673546259329  0.21253948586140356  0.9857359750816004  1.0000
  V   V2        1.0  0.7880675530692985  0.6834774672584266  0.00441083107486806  1.0000
  Mn  Mn1       1.0  0.05296288219532937  0.8946061834491199  0.09880347370753238  1.0000
  F   F1        1.0  0.07227134303420728  0.6355355743683551  0.6077579141290155  1.0000
  F   F2        1.0  0.5279212714962559  0.7792077895326558  0.3492643207499664  1.0000
  F   F3        1.0  0.9298462496265587  0.2545156402315104  0.13573033049910127  1.0000
  F   F4        1.0  0.1573070601622473  0.5021558791577169  0.14100015125693743  1.0000
  F   F5        1.0  0.4086050621304607  0.9412271203510078  0.8377317943314533  1.0000
  F   F6        1.0  0.7367303930472542  0.09708585522041797  0.8410828247190801  1.0000
