data_image0
_chemical_formula_structural       V2MoCl6
_chemical_formula_sum              "V2 Mo1 Cl6"
_cell_length_a       6.660018286101798
_cell_length_b       6.6600182967359425
_cell_length_c       6.660018227891804
_cell_angle_alpha    59.99999739977743
_cell_angle_beta     60.00000092589203
_cell_angle_gamma    60.00000002104148

_space_group_name_H-M_alt    "P 1"
_space_group_IT_number       1

loop_
  _space_group_symop_operation_xyz
  'x, y, z'

loop_
  _atom_site_type_symbol
  _atom_site_label
  _atom_site_symmetry_multiplicity
  _atom_site_fract_x
  _atom_site_fract_y
  _atom_site_fract_z
  _atom_site_occupancy
  V   V1        1.0  0.249999986556245  0.24999998415306485  0.24999999017764413  1.0000
  V   V2        1.0  0.7499999695996916  0.7499998862569469  0.7500000647344647  1.0000
  Mo  Mo1       1.0  1.7635267037908077e-08  1.4711611537616267e-08  0.9999999492921204  1.0000
  Cl  Cl1       1.0  0.25291027303041536  0.25291025747294543  0.7470896976254578  1.0000
  Cl  Cl2       1.0  0.7470896388494331  0.7470898133827515  0.2529103212437745  1.0000
  Cl  Cl3       1.0  0.7470897588588463  0.25291021752899767  0.25291033050333583  1.0000
  Cl  Cl4       1.0  0.25291039578936125  0.7470896087461834  0.7470897343169033  1.0000
  Cl  Cl5       1.0  0.2529102964631395  0.7470898139907202  0.252910241094883  1.0000
  Cl  Cl6       1.0  0.7470896775502611  0.2529103929473706  0.7470896831708658  1.0000
