data_image0
_chemical_formula_structural       V2MoI6
_chemical_formula_sum              "V2 Mo1 I6"
_cell_length_a       7.6643043625764875
_cell_length_b       7.664304407912535
_cell_length_c       7.664304358335827
_cell_angle_alpha    60.000000372741425
_cell_angle_beta     60.00000014827257
_cell_angle_gamma    60.00000001570832

_space_group_name_H-M_alt    "P 1"
_space_group_IT_number       1

loop_
  _space_group_symop_operation_xyz
  'x, y, z'

loop_
  _atom_site_type_symbol
  _atom_site_label
  _atom_site_symmetry_multiplicity
  _atom_site_fract_x
  _atom_site_fract_y
  _atom_site_fract_z
  _atom_site_occupancy
  V   V1        1.0  0.2500000009109914  0.25000000752495655  0.24999999643611884  1.0000
  V   V2        1.0  0.7500000029157549  0.7500000129869555  0.7499999496494284  1.0000
  Mo  Mo1       1.0  0.9999999852839276  7.989928408924815e-09  0.9999999837918242  1.0000
  I   I1        1.0  0.2545196434065847  0.254519607034737  0.7454803716376112  1.0000
  I   I2        1.0  0.7454804042341776  0.745480354351705  0.25451963559840707  1.0000
  I   I3        1.0  0.7454803856857932  0.254519632247327  0.25451961441754795  1.0000
  I   I4        1.0  0.2545196017511849  0.7454803786766712  0.7454804151133324  1.0000
  I   I5        1.0  0.2545195909589749  0.7454803684462509  0.2545196411788372  1.0000
  I   I6        1.0  0.7454803842581398  0.25451962489990493  0.7454803862891476  1.0000
