data_image0
_chemical_formula_structural       V2MoI6
_chemical_formula_sum              "V2 Mo1 I6"
_cell_length_a       7.664453371246117
_cell_length_b       7.664453389379757
_cell_length_c       7.6644534034356075
_cell_angle_alpha    59.99999990037894
_cell_angle_beta     60.000000598659085
_cell_angle_gamma    60.00000023844964

_space_group_name_H-M_alt    "P 1"
_space_group_IT_number       1

loop_
  _space_group_symop_operation_xyz
  'x, y, z'

loop_
  _atom_site_type_symbol
  _atom_site_label
  _atom_site_symmetry_multiplicity
  _atom_site_fract_x
  _atom_site_fract_y
  _atom_site_fract_z
  _atom_site_occupancy
  V   V1        1.0  0.2500000073112365  0.2500000075694786  0.24999998452242336  1.0000
  V   V2        1.0  0.7499999900530165  0.7499999827595701  0.7500000194907124  1.0000
  Mo  Mo1       1.0  6.650304107273322e-09  0.9999999936081816  0.9999999737762675  1.0000
  I   I1        1.0  0.25451325586488244  0.2545132402367939  0.7454867411021973  1.0000
  I   I2        1.0  0.7454867828764025  0.7454867660718013  0.25451319900508845  1.0000
  I   I3        1.0  0.7454867142669513  0.25451326742794983  0.2545132727707698  1.0000
  I   I4        1.0  0.25451320852877685  0.7454867884172381  0.7454867905669865  1.0000
  I   I5        1.0  0.2545132302370225  0.7454867756208908  0.2545132212755845  1.0000
  I   I6        1.0  0.7454868068462793  0.25451318594497463  0.7454867929163125  1.0000
