data_image0
_chemical_formula_structural       V2MoF6
_chemical_formula_sum              "V2 Mo1 F6"
_cell_length_a       5.473104179691657
_cell_length_b       5.473104245977896
_cell_length_c       5.473104294577389
_cell_angle_alpha    59.999996625264856
_cell_angle_beta     59.99999947218158
_cell_angle_gamma    59.999998924842174

_space_group_name_H-M_alt    "P 1"
_space_group_IT_number       1

loop_
  _space_group_symop_operation_xyz
  'x, y, z'

loop_
  _atom_site_type_symbol
  _atom_site_label
  _atom_site_symmetry_multiplicity
  _atom_site_fract_x
  _atom_site_fract_y
  _atom_site_fract_z
  _atom_site_occupancy
  V   V1        1.0  0.24999937795984903  0.2500000512678994  0.25000068416782334  1.0000
  V   V2        1.0  0.7499990258848581  0.7500015412098825  0.749999955388565  1.0000
  Mo  Mo1       1.0  2.755502374236268e-08  0.9999999932867438  1.3331632922266273e-08  1.0000
  F   F1        1.0  0.26343054190401155  0.263430306305856  0.7365693737549603  1.0000
  F   F2        1.0  0.7365701775727069  0.7365689723365656  0.2634302563347667  1.0000
  F   F3        1.0  0.7365695562119244  0.2634298004777715  0.263430964780837  1.0000
  F   F4        1.0  0.2634308668872225  0.7365699369037565  0.7365691578427408  1.0000
  F   F5        1.0  0.26343079915586226  0.7365697769444486  0.263430135171778  1.0000
  F   F6        1.0  0.7365696768852125  0.2634296180610686  0.736569532874587  1.0000
