data_image0
_chemical_formula_structural       V2MoCl6
_chemical_formula_sum              "V2 Mo1 Cl6"
_cell_length_a       6.659802350715485
_cell_length_b       6.659802339721137
_cell_length_c       6.659802348006842
_cell_angle_alpha    59.99999644429362
_cell_angle_beta     59.999998477774504
_cell_angle_gamma    59.99999871094381

_space_group_name_H-M_alt    "P 1"
_space_group_IT_number       1

loop_
  _space_group_symop_operation_xyz
  'x, y, z'

loop_
  _atom_site_type_symbol
  _atom_site_label
  _atom_site_symmetry_multiplicity
  _atom_site_fract_x
  _atom_site_fract_y
  _atom_site_fract_z
  _atom_site_occupancy
  V   V1        1.0  0.2500000019060508  0.24999999224365393  0.25000002131161536  1.0000
  V   V2        1.0  0.7499999856813375  0.7500000576474429  0.7499999974579058  1.0000
  Mo  Mo1       1.0  2.457118406762332e-08  1.4712086306642896e-08  1.489392359971272e-08  1.0000
  Cl  Cl1       1.0  0.25291812350654214  0.2529180644279337  0.7470818771587951  1.0000
  Cl  Cl2       1.0  0.747081927024819  0.7470819578780032  0.2529180308354635  1.0000
  Cl  Cl3       1.0  0.7470818902194852  0.25291812680403913  0.2529180865751311  1.0000
  Cl  Cl4       1.0  0.2529180715016274  0.7470818550436543  0.7470819641337709  1.0000
  Cl  Cl5       1.0  0.2529180653442102  0.7470819380688253  0.25291803944207397  1.0000
  Cl  Cl6       1.0  0.7470819121226923  0.25291797573546665  0.747081978855339  1.0000
