data_image0
_chemical_formula_structural       V2MoF6
_chemical_formula_sum              "V2 Mo1 F6"
_cell_length_a       5.473093973849607
_cell_length_b       5.473094210220572
_cell_length_c       5.4730946917964785
_cell_angle_alpha    59.9999975290901
_cell_angle_beta     59.99999620612145
_cell_angle_gamma    59.99999571344286

_space_group_name_H-M_alt    "P 1"
_space_group_IT_number       1

loop_
  _space_group_symop_operation_xyz
  'x, y, z'

loop_
  _atom_site_type_symbol
  _atom_site_label
  _atom_site_symmetry_multiplicity
  _atom_site_fract_x
  _atom_site_fract_y
  _atom_site_fract_z
  _atom_site_occupancy
  V   V1        1.0  0.2499984450045745  0.2500015423887667  0.2500003980907195  1.0000
  V   V2        1.0  0.7499993246768075  0.750000196409395  0.7500005250116998  1.0000
  Mo  Mo1       1.0  4.939876135354191e-08  0.9999999910489743  0.9999999304438961  1.0000
  F   F1        1.0  0.2634334462097402  0.26343237326540464  0.7365670791057887  1.0000
  F   F2        1.0  0.7365675049101601  0.7365667518337039  0.26343266666529136  1.0000
  F   F3        1.0  0.7365675347608086  0.26343302485802095  0.2634326729718213  1.0000
  F   F4        1.0  0.2634329358927244  0.736566845413834  0.7365673826090756  1.0000
  F   F5        1.0  0.26343299424252503  0.7365663271086604  0.26343283677493845  1.0000
  F   F6        1.0  0.7365677783725676  0.2634330866609695  0.7365664519469162  1.0000
