data_image0
_chemical_formula_structural       V2MoBr6
_chemical_formula_sum              "V2 Mo1 Br6"
_cell_length_a       7.032480066705183
_cell_length_b       7.032479952335506
_cell_length_c       7.032479852521404
_cell_angle_alpha    60.00000056536865
_cell_angle_beta     60.00000033546404
_cell_angle_gamma    59.99999908947934

_space_group_name_H-M_alt    "P 1"
_space_group_IT_number       1

loop_
  _space_group_symop_operation_xyz
  'x, y, z'

loop_
  _atom_site_type_symbol
  _atom_site_label
  _atom_site_symmetry_multiplicity
  _atom_site_fract_x
  _atom_site_fract_y
  _atom_site_fract_z
  _atom_site_occupancy
  V   V1        1.0  0.2500000250878995  0.2500000565953978  0.24999993869384587  1.0000
  V   V2        1.0  0.7499999895691564  0.7500000426526997  0.7500000049700188  1.0000
  Mo  Mo1       1.0  1.7298857350169405e-08  0.9999999825844524  0.9999999872605835  1.0000
  Br  Br1       1.0  0.2552640765366563  0.25526394582966283  0.7447359973006015  1.0000
  Br  Br2       1.0  0.7447359819580729  0.744736007127837  0.25526403740498316  1.0000
  Br  Br3       1.0  0.74473595851375  0.2552640196152454  0.2552640267714839  1.0000
  Br  Br4       1.0  0.2552639609612702  0.7447359908135618  0.7447359904073886  1.0000
  Br  Br5       1.0  0.2552640231326625  0.7447359472413818  0.25526405197515273  1.0000
  Br  Br6       1.0  0.744735970944564  0.25526399700834496  0.7447359723679443  1.0000
