data_image0
_chemical_formula_structural       V2MoBr6
_chemical_formula_sum              "V2 Mo1 Br6"
_cell_length_a       7.032442964923544
_cell_length_b       7.032442766422623
_cell_length_c       7.032442712485026
_cell_angle_alpha    59.99999775020913
_cell_angle_beta     59.99999871472164
_cell_angle_gamma    59.99999793994902

_space_group_name_H-M_alt    "P 1"
_space_group_IT_number       1

loop_
  _space_group_symop_operation_xyz
  'x, y, z'

loop_
  _atom_site_type_symbol
  _atom_site_label
  _atom_site_symmetry_multiplicity
  _atom_site_fract_x
  _atom_site_fract_y
  _atom_site_fract_z
  _atom_site_occupancy
  V   V1        1.0  0.24999999063672745  0.24999999710086743  0.25000002428119933  1.0000
  V   V2        1.0  0.7500000029253504  0.7499999721453987  0.7500000484288624  1.0000
  Mo  Mo1       1.0  2.988051848211918e-10  0.9999999843259239  1.9063483838154184e-08  1.0000
  Br  Br1       1.0  0.25526458462197477  0.2552646188147985  0.7447354224558516  1.0000
  Br  Br2       1.0  0.7447354092872422  0.7447354183524633  0.2552646033223121  1.0000
  Br  Br3       1.0  0.7447353850813268  0.25526461858076466  0.25526462744686085  1.0000
  Br  Br4       1.0  0.25526461066905715  0.7447354081371145  0.7447353386462655  1.0000
  Br  Br5       1.0  0.25526464963033774  0.7447353721743056  0.255264532942831  1.0000
  Br  Br6       1.0  0.7447353758916601  0.25526461448760274  0.7447353828352146  1.0000
