data_image0
_chemical_formula_structural       V2NbBr6
_chemical_formula_sum              "V2 Nb1 Br6"
_cell_length_a       7.152791392907573
_cell_length_b       7.152791520378234
_cell_length_c       7.152791371100731
_cell_angle_alpha    60.00000005497199
_cell_angle_beta     59.99999975646903
_cell_angle_gamma    60.00000162808858

_space_group_name_H-M_alt    "P 1"
_space_group_IT_number       1

loop_
  _space_group_symop_operation_xyz
  'x, y, z'

loop_
  _atom_site_type_symbol
  _atom_site_label
  _atom_site_symmetry_multiplicity
  _atom_site_fract_x
  _atom_site_fract_y
  _atom_site_fract_z
  _atom_site_occupancy
  V   V1        1.0  0.2500000035435  0.2499998814933341  0.2500000338836114  1.0000
  V   V2        1.0  0.7500000412327932  0.7499999304276511  0.7500000230650306  1.0000
  Nb  Nb1       1.0  0.9999999876392687  2.7396181833105463e-08  0.9999999771036631  1.0000
  Br  Br1       1.0  0.251691274699341  0.2516913993170141  0.7483086833431335  1.0000
  Br  Br2       1.0  0.7483086125853936  0.7483086574573445  0.2516913718662683  1.0000
  Br  Br3       1.0  0.7483086796729543  0.251691398088998  0.2516912992933154  1.0000
  Br  Br4       1.0  0.25169136428345257  0.7483086826570227  0.748308601283861  1.0000
  Br  Br5       1.0  0.2516913591432774  0.748308683875637  0.25169133654343784  1.0000
  Br  Br6       1.0  0.7483086782103382  0.2516913198186214  0.74830867436574  1.0000
