data_image0
_chemical_formula_structural       V2NbCl6
_chemical_formula_sum              "V2 Nb1 Cl6"
_cell_length_a       6.805617934227862
_cell_length_b       6.805617896119183
_cell_length_c       6.805618330888717
_cell_angle_alpha    59.999997647273155
_cell_angle_beta     59.99999442021258
_cell_angle_gamma    60.00000330105863

_space_group_name_H-M_alt    "P 1"
_space_group_IT_number       1

loop_
  _space_group_symop_operation_xyz
  'x, y, z'

loop_
  _atom_site_type_symbol
  _atom_site_label
  _atom_site_symmetry_multiplicity
  _atom_site_fract_x
  _atom_site_fract_y
  _atom_site_fract_z
  _atom_site_occupancy
  V   V1        1.0  0.2499996526434376  0.25000063003934786  0.24999970503861568  1.0000
  V   V2        1.0  0.749999961884767  0.7500001354996944  0.7499998577913203  1.0000
  Nb  Nb1       1.0  6.223053009824826e-08  0.9999999100195726  3.738493433580939e-08  1.0000
  Cl  Cl1       1.0  0.2517766029819145  0.25177633652319653  0.7482235550388717  1.0000
  Cl  Cl2       1.0  0.7482237415339533  0.7482233690464132  0.25177670763414023  1.0000
  Cl  Cl3       1.0  0.7482234189091277  0.2517766724580038  0.2517764348082119  1.0000
  Cl  Cl4       1.0  0.25177645754152833  0.7482231698818292  0.7482236746581051  1.0000
  Cl  Cl5       1.0  0.25177661899812465  0.7482232849527732  0.2517765868694952  1.0000
  Cl  Cl6       1.0  0.7482234578851358  0.25177651599607365  0.7482234401372586  1.0000
