data_image0
_chemical_formula_structural       V2NbF6
_chemical_formula_sum              "V2 Nb1 F6"
_cell_length_a       5.480763470818323
_cell_length_b       5.4807670288070085
_cell_length_c       5.480765498462225
_cell_angle_alpha    60.000008403040106
_cell_angle_beta     59.999990746293044
_cell_angle_gamma    59.99998064274474

_space_group_name_H-M_alt    "P 1"
_space_group_IT_number       1

loop_
  _space_group_symop_operation_xyz
  'x, y, z'

loop_
  _atom_site_type_symbol
  _atom_site_label
  _atom_site_symmetry_multiplicity
  _atom_site_fract_x
  _atom_site_fract_y
  _atom_site_fract_z
  _atom_site_occupancy
  V   V1        1.0  0.25000910659924663  0.25002722247000186  0.24998163896754913  1.0000
  V   V2        1.0  0.7500129974863506  0.7500236901221655  0.7499837780023962  1.0000
  Nb  Nb1       1.0  0.9999944460128336  0.9999921006098605  5.9056353867201975e-06  1.0000
  F   F1        1.0  0.2616826326005321  0.2616807822326711  0.7383178756436587  1.0000
  F   F2        1.0  0.738312511874555  0.7383028257601393  0.26169298935971397  1.0000
  F   F3        1.0  0.7383101934456796  0.26168117555742476  0.2616913377588726  1.0000
  F   F4        1.0  0.26168342127660565  0.7383040637107124  0.7383201242029321  1.0000
  F   F5        1.0  0.26168368206674547  0.7383080355757334  0.26169113509032726  1.0000
  F   F6        1.0  0.7383109792308755  0.2616800304901444  0.7383152464635061  1.0000
