data_image0
_chemical_formula_structural       V2NbI6
_chemical_formula_sum              "V2 Nb1 I6"
_cell_length_a       7.7575618998493905
_cell_length_b       7.757561718344905
_cell_length_c       7.75756198049564
_cell_angle_alpha    60.00000013057287
_cell_angle_beta     59.99999942527233
_cell_angle_gamma    59.99999907331569

_space_group_name_H-M_alt    "P 1"
_space_group_IT_number       1

loop_
  _space_group_symop_operation_xyz
  'x, y, z'

loop_
  _atom_site_type_symbol
  _atom_site_label
  _atom_site_symmetry_multiplicity
  _atom_site_fract_x
  _atom_site_fract_y
  _atom_site_fract_z
  _atom_site_occupancy
  V   V1        1.0  0.24999998695480793  0.2499999949147471  0.25000003802626036  1.0000
  V   V2        1.0  0.7499999960462863  0.750000013162199  0.7499999636849105  1.0000
  Nb  Nb1       1.0  1.2705004423642322e-08  0.9999999842122445  2.5231060976280157e-10  1.0000
  I   I1        1.0  0.2525812912083199  0.252581309904478  0.7474186858534068  1.0000
  I   I2        1.0  0.7474187350490974  0.7474186934361411  0.2525812837071179  1.0000
  I   I3        1.0  0.7474187024059011  0.25258129859433215  0.2525812889630731  1.0000
  I   I4        1.0  0.25258128312070194  0.7474187331642475  0.7474187086679803  1.0000
  I   I5        1.0  0.25258130804024087  0.7474187020477665  0.2525812925293907  1.0000
  I   I6        1.0  0.747418686448249  0.2525812760324444  0.7474187261708383  1.0000
