data_image0
_chemical_formula_structural       V2NCl6
_chemical_formula_sum              "V2 N1 Cl6"
_cell_length_a       6.347975052181512
_cell_length_b       6.347975907138634
_cell_length_c       6.347975000849855
_cell_angle_alpha    60.00000381226497
_cell_angle_beta     60.00000064479882
_cell_angle_gamma    60.00000438931249

_space_group_name_H-M_alt    "P 1"
_space_group_IT_number       1

loop_
  _space_group_symop_operation_xyz
  'x, y, z'

loop_
  _atom_site_type_symbol
  _atom_site_label
  _atom_site_symmetry_multiplicity
  _atom_site_fract_x
  _atom_site_fract_y
  _atom_site_fract_z
  _atom_site_occupancy
  V   V1        1.0  0.25000004722946684  0.24999986267838148  0.24999997623365972  1.0000
  V   V2        1.0  0.749999929870213  0.7499998851545748  0.7499999033787158  1.0000
  N   N1        1.0  0.9999999936981162  0.9999999807065268  3.1683164213658426e-07  1.0000
  Cl  Cl1       1.0  0.246120832621284  0.24612090088832103  0.7538791321196083  1.0000
  Cl  Cl2       1.0  0.7538791766087795  0.753879165286879  0.24612089046816446  1.0000
  Cl  Cl3       1.0  0.7538792145354466  0.24612077738618546  0.2461208082738544  1.0000
  Cl  Cl4       1.0  0.2461208908277047  0.7538792077564441  0.7538790775886088  1.0000
  Cl  Cl5       1.0  0.24612081570921981  0.7538792908949723  0.24612072236131163  1.0000
  Cl  Cl6       1.0  0.7538791020534569  0.24612092962798504  0.753879171117333  1.0000
