data_image0
_chemical_formula_structural       V2NCl6
_chemical_formula_sum              "V2 N1 Cl6"
_cell_length_a       6.347965506834294
_cell_length_b       6.3479654832514205
_cell_length_c       6.3479655835873405
_cell_angle_alpha    59.999999828454314
_cell_angle_beta     60.00000024027112
_cell_angle_gamma    60.00000221534586

_space_group_name_H-M_alt    "P 1"
_space_group_IT_number       1

loop_
  _space_group_symop_operation_xyz
  'x, y, z'

loop_
  _atom_site_type_symbol
  _atom_site_label
  _atom_site_symmetry_multiplicity
  _atom_site_fract_x
  _atom_site_fract_y
  _atom_site_fract_z
  _atom_site_occupancy
  V   V1        1.0  0.250000045304125  0.24999992322701087  0.24999996534012273  1.0000
  V   V2        1.0  0.7500000103785919  0.7499999934856555  0.7499998279812542  1.0000
  N   N1        1.0  8.463285971481639e-08  0.9999998224997816  1.5197930506732828e-07  1.0000
  Cl  Cl1       1.0  0.24612082453120573  0.24612084565746004  0.7538791614589658  1.0000
  Cl  Cl2       1.0  0.7538792093580249  0.7538791964629709  0.246120851008222  1.0000
  Cl  Cl3       1.0  0.7538791740958587  0.24612082197151772  0.24612084256279007  1.0000
  Cl  Cl4       1.0  0.24612081365610375  0.7538792548772159  0.7538791708829566  1.0000
  Cl  Cl5       1.0  0.24612073103095805  0.7538792637302005  0.24612081532695035  1.0000
  Cl  Cl6       1.0  0.7538791013139347  0.24612088643383762  0.753879213959753  1.0000
