data_image0
_chemical_formula_structural       V2NF6
_chemical_formula_sum              "V2 N1 F6"
_cell_length_a       4.33687331487267
_cell_length_b       5.2960190584170785
_cell_length_c       4.176540243112124
_cell_angle_alpha    54.44158138206523
_cell_angle_beta     42.80616631431819
_cell_angle_gamma    62.96774457189163

_space_group_name_H-M_alt    "P 1"
_space_group_IT_number       1

loop_
  _space_group_symop_operation_xyz
  'x, y, z'

loop_
  _atom_site_type_symbol
  _atom_site_label
  _atom_site_symmetry_multiplicity
  _atom_site_fract_x
  _atom_site_fract_y
  _atom_site_fract_z
  _atom_site_occupancy
  V   V1        1.0  0.5555783576523758  0.7711815887321144  0.6952383896612182  1.0000
  V   V2        1.0  0.6392723572160692  0.6130571141688438  0.895244759380018  1.0000
  N   N1        1.0  0.35552502139793113  0.48778016440761585  0.17427109613220232  1.0000
  F   F1        1.0  0.06685523726505112  0.7288754028736828  0.07359250196508915  1.0000
  F   F2        1.0  0.2348766449980324  0.5302275629525441  0.07948232994916644  1.0000
  F   F3        1.0  0.051708584317065015  0.7693978688615826  0.04597059368331413  1.0000
  F   F4        1.0  0.9870245210421792  0.5185814091206046  0.386768678743008  1.0000
  F   F5        1.0  0.5618686263373378  0.7506863390071242  0.7244406261193892  1.0000
  F   F6        1.0  0.09080051672915235  0.7294347764208097  0.02204158296313774  1.0000
