data_image0
_chemical_formula_structural       V2NF6
_chemical_formula_sum              "V2 N1 F6"
_cell_length_a       5.78797480338364
_cell_length_b       4.421806182744194
_cell_length_c       5.29120077467219
_cell_angle_alpha    71.70342558535712
_cell_angle_beta     81.326486558402
_cell_angle_gamma    75.55908969879266

_space_group_name_H-M_alt    "P 1"
_space_group_IT_number       1

loop_
  _space_group_symop_operation_xyz
  'x, y, z'

loop_
  _atom_site_type_symbol
  _atom_site_label
  _atom_site_symmetry_multiplicity
  _atom_site_fract_x
  _atom_site_fract_y
  _atom_site_fract_z
  _atom_site_occupancy
  V   V1        1.0  0.01421576353140991  0.015361042848296647  0.6015213677792788  1.0000
  V   V2        1.0  0.9539837041167304  0.2572620856355641  0.9554612517133099  1.0000
  N   N1        1.0  0.9726906691387944  0.6047727656933923  0.9131636178536946  1.0000
  F   F1        1.0  0.0295771956648201  0.3325731485777239  0.8267130114184068  1.0000
  F   F2        1.0  0.8539010031208991  0.0080433809328595  0.04252032792249177  1.0000
  F   F3        1.0  0.9724959259553321  0.973414037676152  0.061060408758814466  1.0000
  F   F4        1.0  0.9705285644880934  0.6162753982464522  0.9163678106633042  1.0000
  F   F5        1.0  0.9707270845848541  0.6162608617086802  0.9159563758159786  1.0000
  F   F6        1.0  0.8314517464478517  0.06195520493441575  0.9087671651144155  1.0000
