data_image0
_chemical_formula_structural       V2NiF6
_chemical_formula_sum              "V2 Ni1 F6"
_cell_length_a       5.115004549478272
_cell_length_b       5.115005078649487
_cell_length_c       5.115005106697494
_cell_angle_alpha    59.99999943770352
_cell_angle_beta     59.99999900932718
_cell_angle_gamma    59.99999899943911

_space_group_name_H-M_alt    "P 1"
_space_group_IT_number       1

loop_
  _space_group_symop_operation_xyz
  'x, y, z'

loop_
  _atom_site_type_symbol
  _atom_site_label
  _atom_site_symmetry_multiplicity
  _atom_site_fract_x
  _atom_site_fract_y
  _atom_site_fract_z
  _atom_site_occupancy
  V   V1        1.0  0.2500001627728883  0.24999978325821165  0.2500000872429105  1.0000
  V   V2        1.0  0.7500000733691162  0.7499997616141635  0.7499996396284406  1.0000
  Ni  Ni1       1.0  0.9999999904223367  2.873298908305258e-08  2.1525304414355013e-09  1.0000
  F   F1        1.0  0.2557396240227487  0.25573981790530587  0.7442602839956555  1.0000
  F   F2        1.0  0.7442602690411545  0.7442603159933453  0.25573984971534247  1.0000
  F   F3        1.0  0.7442602371541441  0.25573977530406533  0.2557397087419681  1.0000
  F   F4        1.0  0.25573976376789026  0.7442603059174377  0.7442603191772502  1.0000
  F   F5        1.0  0.25573964703115065  0.7442602721453553  0.25573982644080073  1.0000
  F   F6        1.0  0.7442602787759041  0.2557399599243406  0.7442602535432932  1.0000
