data_image0
_chemical_formula_structural       V2NiI6
_chemical_formula_sum              "V2 Ni1 I6"
_cell_length_a       7.430779085916989
_cell_length_b       7.430779103080433
_cell_length_c       7.4307791258558265
_cell_angle_alpha    59.99999970669111
_cell_angle_beta     60.00000000054555
_cell_angle_gamma    60.00000043282612

_space_group_name_H-M_alt    "P 1"
_space_group_IT_number       1

loop_
  _space_group_symop_operation_xyz
  'x, y, z'

loop_
  _atom_site_type_symbol
  _atom_site_label
  _atom_site_symmetry_multiplicity
  _atom_site_fract_x
  _atom_site_fract_y
  _atom_site_fract_z
  _atom_site_occupancy
  V   V1        1.0  0.25000001844184144  0.24999994550081703  0.25000002837502444  1.0000
  V   V2        1.0  0.7500000094262215  0.7500000161568172  0.7499999644173851  1.0000
  Ni  Ni1       1.0  0.9999999894994503  0.9999999802215376  2.4559783380339356e-08  1.0000
  I   I1        1.0  0.2522060557046251  0.25220603872457986  0.7477939371681755  1.0000
  I   I2        1.0  0.7477939111664477  0.747793970731005  0.25220605145772246  1.0000
  I   I3        1.0  0.7477939213931233  0.2522060836762532  0.252206079775345  1.0000
  I   I4        1.0  0.2522060667456637  0.7477939785218978  0.7477939162552916  1.0000
  I   I5        1.0  0.25220608946372586  0.7477939123576883  0.25220607059227035  1.0000
  I   I6        1.0  0.7477939410409107  0.25220607402302403  0.7477939313981298  1.0000
