data_image0
_chemical_formula_structural       V2NiBr6
_chemical_formula_sum              "V2 Ni1 Br6"
_cell_length_a       6.8412896075432545
_cell_length_b       6.841289664033003
_cell_length_c       6.841289730376418
_cell_angle_alpha    59.99999983612837
_cell_angle_beta     60.00000052188997
_cell_angle_gamma    60.00000050423806

_space_group_name_H-M_alt    "P 1"
_space_group_IT_number       1

loop_
  _space_group_symop_operation_xyz
  'x, y, z'

loop_
  _atom_site_type_symbol
  _atom_site_label
  _atom_site_symmetry_multiplicity
  _atom_site_fract_x
  _atom_site_fract_y
  _atom_site_fract_z
  _atom_site_occupancy
  V   V1        1.0  0.2500000437696949  0.2499999649357786  0.24999997244447314  1.0000
  V   V2        1.0  0.7499999734681476  0.7500000290742201  0.7499999832038139  1.0000
  Ni  Ni1       1.0  2.9205211121084445e-08  0.999999973146623  1.4902922695284304e-08  1.0000
  Br  Br1       1.0  0.24884385786377383  0.24884383811001481  0.7511561850476224  1.0000
  Br  Br2       1.0  0.7511561585725586  0.7511561684315597  0.24884383489784107  1.0000
  Br  Br3       1.0  0.7511561339073926  0.24884383183597336  0.24884386342927337  1.0000
  Br  Br4       1.0  0.24884383238808316  0.7511561782860512  0.7511561432535758  1.0000
  Br  Br5       1.0  0.24884383506083557  0.7511561938322653  0.24884384429302062  1.0000
  Br  Br6       1.0  0.7511561316266124  0.24884382524088494  0.7511561606417048  1.0000
