data_image0
_chemical_formula_structural       V2NO6
_chemical_formula_sum              "V2 N1 O6"
_cell_length_a       4.641973482973913
_cell_length_b       4.641973375711965
_cell_length_c       4.64197333457988
_cell_angle_alpha    60.000001210711986
_cell_angle_beta     60.00000073937062
_cell_angle_gamma    60.000000933352275

_space_group_name_H-M_alt    "P 1"
_space_group_IT_number       1

loop_
  _space_group_symop_operation_xyz
  'x, y, z'

loop_
  _atom_site_type_symbol
  _atom_site_label
  _atom_site_symmetry_multiplicity
  _atom_site_fract_x
  _atom_site_fract_y
  _atom_site_fract_z
  _atom_site_occupancy
  V   V1        1.0  0.2500004555716089  0.24999954337012975  0.24999995054343035  1.0000
  V   V2        1.0  0.7500003037667959  0.7499999757016373  0.7499999386598553  1.0000
  N   N1        1.0  0.9999999742453208  2.6384147990351617e-09  7.618581931770244e-08  1.0000
  O   O1        1.0  0.24514380126386107  0.24514400421282276  0.7548561210824907  1.0000
  O   O2        1.0  0.7548559186052287  0.7548562377844334  0.24514389407887163  1.0000
  O   O3        1.0  0.7548559855618169  0.2451439123024803  0.24514391988331977  1.0000
  O   O4        1.0  0.24514383200182363  0.7548561634746792  0.7548560175194899  1.0000
  O   O5        1.0  0.24514378992660427  0.7548562050513448  0.2451439127090037  1.0000
  O   O6        1.0  0.7548559655481323  0.2451439525166563  0.754856107475856  1.0000
