data_image0
_chemical_formula_structural       V2OsF6
_chemical_formula_sum              "V2 Os1 F6"
_cell_length_a       5.563164370894001
_cell_length_b       5.56316708932122
_cell_length_c       5.563165867428307
_cell_angle_alpha    59.99999449482421
_cell_angle_beta     59.999988086425056
_cell_angle_gamma    60.00000003405754

_space_group_name_H-M_alt    "P 1"
_space_group_IT_number       1

loop_
  _space_group_symop_operation_xyz
  'x, y, z'

loop_
  _atom_site_type_symbol
  _atom_site_label
  _atom_site_symmetry_multiplicity
  _atom_site_fract_x
  _atom_site_fract_y
  _atom_site_fract_z
  _atom_site_occupancy
  V   V1        1.0  0.2499973265848226  0.25000051432971715  0.25000037677098846  1.0000
  V   V2        1.0  0.7500011585865412  0.7499986523868568  0.7500000012378312  1.0000
  Os  Os1       1.0  1.7101727528381644e-07  6.604571089702434e-08  1.6283819041781668e-08  1.0000
  F   F1        1.0  0.25528089815265986  0.25528267967684726  0.7447185531825812  1.0000
  F   F2        1.0  0.7447192499521839  0.7447173390294997  0.2552816926230496  1.0000
  F   F3        1.0  0.7447194259428561  0.2552822030127716  0.25528125488026404  1.0000
  F   F4        1.0  0.25528130832088725  0.7447180622643106  0.7447184828860931  1.0000
  F   F5        1.0  0.2552812638523636  0.7447185018046936  0.25528233019700036  1.0000
  F   F6        1.0  0.7447191743281056  0.2552819792218034  0.7447174351535087  1.0000
