data_image0
_chemical_formula_structural       V2OsI6
_chemical_formula_sum              "V2 Os1 I6"
_cell_length_a       7.572263196031087
_cell_length_b       7.572263201638942
_cell_length_c       7.572263182213339
_cell_angle_alpha    60.00000021226304
_cell_angle_beta     59.99999992474861
_cell_angle_gamma    59.99999961183013

_space_group_name_H-M_alt    "P 1"
_space_group_IT_number       1

loop_
  _space_group_symop_operation_xyz
  'x, y, z'

loop_
  _atom_site_type_symbol
  _atom_site_label
  _atom_site_symmetry_multiplicity
  _atom_site_fract_x
  _atom_site_fract_y
  _atom_site_fract_z
  _atom_site_occupancy
  V   V1        1.0  0.2499999958918083  0.2500000085340099  0.24999999630481637  1.0000
  V   V2        1.0  0.7499999875062933  0.7500000078105278  0.7500000295893853  1.0000
  Os  Os1       1.0  1.1475125951908104e-08  1.1321864763180759e-08  0.9999999529450577  1.0000
  I   I1        1.0  0.2506810200512574  0.2506810633521662  0.7493189672346967  1.0000
  I   I2        1.0  0.7493189783501634  0.7493189125571394  0.2506810462838874  1.0000
  I   I3        1.0  0.7493189442802163  0.2506810228714349  0.2506810439093804  1.0000
  I   I4        1.0  0.25068105347369596  0.7493189870034654  0.7493189555913792  1.0000
  I   I5        1.0  0.2506810579926575  0.749318961766639  0.2506810225585519  1.0000
  I   I6        1.0  0.7493189462308919  0.2506810286993501  0.749318987373672  1.0000
