data_image0
_chemical_formula_structural       V2OsBr6
_chemical_formula_sum              "V2 Os1 Br6"
_cell_length_a       7.038377847811028
_cell_length_b       7.0383779558519155
_cell_length_c       7.038378046557432
_cell_angle_alpha    59.99999875701178
_cell_angle_beta     59.999999456409626
_cell_angle_gamma    59.9999989136378

_space_group_name_H-M_alt    "P 1"
_space_group_IT_number       1

loop_
  _space_group_symop_operation_xyz
  'x, y, z'

loop_
  _atom_site_type_symbol
  _atom_site_label
  _atom_site_symmetry_multiplicity
  _atom_site_fract_x
  _atom_site_fract_y
  _atom_site_fract_z
  _atom_site_occupancy
  V   V1        1.0  0.25000001601652466  0.24999995733000893  0.25000005183757656  1.0000
  V   V2        1.0  0.7499998743615216  0.7500000042372765  0.7500001364512373  1.0000
  Os  Os1       1.0  0.9999999999829253  2.9581621297410362e-08  0.9999999823761627  1.0000
  Br  Br1       1.0  0.24885711036894165  0.24885703993222905  0.7511429103291757  1.0000
  Br  Br2       1.0  0.7511429529322329  0.7511429442562964  0.24885704663395755  1.0000
  Br  Br3       1.0  0.7511429243202625  0.24885707907334415  0.24885700341530445  1.0000
  Br  Br4       1.0  0.2488570553768196  0.7511429590581384  0.7511429470666677  1.0000
  Br  Br5       1.0  0.24885708849208035  0.7511429226872322  0.24885699636074898  1.0000
  Br  Br6       1.0  0.7511429793498305  0.24885705280081657  0.751142931425053  1.0000
