data_image0
_chemical_formula_structural       V2OsCl6
_chemical_formula_sum              "V2 Os1 Cl6"
_cell_length_a       6.683374272599835
_cell_length_b       6.683374244383963
_cell_length_c       6.683374393739982
_cell_angle_alpha    59.99999899716312
_cell_angle_beta     59.99999961642397
_cell_angle_gamma    59.99999937763835

_space_group_name_H-M_alt    "P 1"
_space_group_IT_number       1

loop_
  _space_group_symop_operation_xyz
  'x, y, z'

loop_
  _atom_site_type_symbol
  _atom_site_label
  _atom_site_symmetry_multiplicity
  _atom_site_fract_x
  _atom_site_fract_y
  _atom_site_fract_z
  _atom_site_occupancy
  V   V1        1.0  0.24999998962532094  0.2499999047860376  0.2500000950677623  1.0000
  V   V2        1.0  0.749999958539429  0.7500000148921752  0.7500001281345205  1.0000
  Os  Os1       1.0  0.9999999716228384  3.848302026666154e-08  0.999999971007068  1.0000
  Cl  Cl1       1.0  0.2493526570816851  0.2493525323556597  0.7506473717145715  1.0000
  Cl  Cl2       1.0  0.750647375705425  0.7506474496283961  0.2493525595710866  1.0000
  Cl  Cl3       1.0  0.7506474554277693  0.24935266715634966  0.24935252915405626  1.0000
  Cl  Cl4       1.0  0.24935255414736038  0.7506473844636472  0.7506473908896224  1.0000
  Cl  Cl5       1.0  0.24935260494977562  0.7506474101935924  0.24935257956118267  1.0000
  Cl  Cl6       1.0  0.7506474192855522  0.24935259744581  0.7506473820751971  1.0000
