data_image0
_chemical_formula_structural       V2PBr6
_chemical_formula_sum              "V2 P1 Br6"
_cell_length_a       6.940691752666159
_cell_length_b       6.940692435618641
_cell_length_c       6.940691883159869
_cell_angle_alpha    59.999999932422035
_cell_angle_beta     59.99999894108494
_cell_angle_gamma    60.00000248439743

_space_group_name_H-M_alt    "P 1"
_space_group_IT_number       1

loop_
  _space_group_symop_operation_xyz
  'x, y, z'

loop_
  _atom_site_type_symbol
  _atom_site_label
  _atom_site_symmetry_multiplicity
  _atom_site_fract_x
  _atom_site_fract_y
  _atom_site_fract_z
  _atom_site_occupancy
  V   V1        1.0  0.2500001175987546  0.250000070651961  0.2499999198898007  1.0000
  V   V2        1.0  0.7499999518552825  0.7500000372618691  0.7499999754479768  1.0000
  P   P1        1.0  2.3475872260760764e-08  1.941044609972898e-08  0.9999999742345047  1.0000
  Br  Br1       1.0  0.25653371085018506  0.2565337357895742  0.7434663090428378  1.0000
  Br  Br2       1.0  0.7434661840226119  0.7434661921364834  0.25653380680280713  1.0000
  Br  Br3       1.0  0.7434662424669066  0.25653371520493984  0.25653386318040183  1.0000
  Br  Br4       1.0  0.2565338051605747  0.7434662286023936  0.7434661611433695  1.0000
  Br  Br5       1.0  0.25653375847452836  0.7434662303536833  0.2565337989301939  1.0000
  Br  Br6       1.0  0.7434662021203226  0.25653376992040156  0.7434661931308236  1.0000
