data_image0
_chemical_formula_structural       V2PBr6
_chemical_formula_sum              "V2 P1 Br6"
_cell_length_a       6.94062346929933
_cell_length_b       6.94062372256129
_cell_length_c       6.940623592848193
_cell_angle_alpha    59.999998046580366
_cell_angle_beta     59.99999882698783
_cell_angle_gamma    59.99999814919557

_space_group_name_H-M_alt    "P 1"
_space_group_IT_number       1

loop_
  _space_group_symop_operation_xyz
  'x, y, z'

loop_
  _atom_site_type_symbol
  _atom_site_label
  _atom_site_symmetry_multiplicity
  _atom_site_fract_x
  _atom_site_fract_y
  _atom_site_fract_z
  _atom_site_occupancy
  V   V1        1.0  0.24999989747057855  0.24999999435254677  0.2500000327924228  1.0000
  V   V2        1.0  0.7499999645321931  0.7500000501125673  0.7500000109147591  1.0000
  P   P1        1.0  3.416464322914487e-08  0.9999999823539649  0.9999999744511834  1.0000
  Br  Br1       1.0  0.2564655729625031  0.25646552509689763  0.7435344444432225  1.0000
  Br  Br2       1.0  0.7435343763245713  0.7435345370142514  0.256465505015801  1.0000
  Br  Br3       1.0  0.74353456915587  0.25646556693019523  0.2564654587767318  1.0000
  Br  Br4       1.0  0.2564655445851276  0.743534421067601  0.7435345607754251  1.0000
  Br  Br5       1.0  0.25646544090361656  0.7435344412502842  0.25646555249258784  1.0000
  Br  Br6       1.0  0.743534595267055  0.25646548498639243  0.7435344574816936  1.0000
