data_image0
_chemical_formula_structural       V2PbI6
_chemical_formula_sum              "V2 Pb1 I6"
_cell_length_a       7.911570272679936
_cell_length_b       7.911570228280822
_cell_length_c       7.9115702362569476
_cell_angle_alpha    60.000000309153705
_cell_angle_beta     59.999999868196994
_cell_angle_gamma    60.00000029737748

_space_group_name_H-M_alt    "P 1"
_space_group_IT_number       1

loop_
  _space_group_symop_operation_xyz
  'x, y, z'

loop_
  _atom_site_type_symbol
  _atom_site_label
  _atom_site_symmetry_multiplicity
  _atom_site_fract_x
  _atom_site_fract_y
  _atom_site_fract_z
  _atom_site_occupancy
  V   V1        1.0  0.2500000112309654  0.25000002075408445  0.2499999969941032  1.0000
  V   V2        1.0  0.7499999608363768  0.7500000049846723  0.7499999865309223  1.0000
  Pb  Pb1       1.0  2.9923613262382917e-09  2.1672598110774257e-08  2.8351793946072236e-09  1.0000
  I   I1        1.0  0.2702487442153716  0.2702487068591371  0.7297512573595494  1.0000
  I   I2        1.0  0.7297512577656061  0.7297512554098683  0.2702487442075052  1.0000
  I   I3        1.0  0.72975125015218  0.2702487519554627  0.2702487209017286  1.0000
  I   I4        1.0  0.2702487537739408  0.7297512613989525  0.7297512693177091  1.0000
  I   I5        1.0  0.27024872829490393  0.7297512498332993  0.2702487413872852  1.0000
  I   I6        1.0  0.7297512978931728  0.2702487186278772  0.7297512689955944  1.0000
