data_image0
_chemical_formula_structural       V2PbCl6
_chemical_formula_sum              "V2 Pb1 Cl6"
_cell_length_a       6.823066136125342
_cell_length_b       6.823066033007924
_cell_length_c       6.823066119750805
_cell_angle_alpha    60.000000468422726
_cell_angle_beta     60.000001520368976
_cell_angle_gamma    60.00000063716241

_space_group_name_H-M_alt    "P 1"
_space_group_IT_number       1

loop_
  _space_group_symop_operation_xyz
  'x, y, z'

loop_
  _atom_site_type_symbol
  _atom_site_label
  _atom_site_symmetry_multiplicity
  _atom_site_fract_x
  _atom_site_fract_y
  _atom_site_fract_z
  _atom_site_occupancy
  V   V1        1.0  0.24999997426300705  0.24999992158744527  0.25000007115135486  1.0000
  V   V2        1.0  0.7500000886185288  0.7499999729831037  0.7499999502168591  1.0000
  Pb  Pb1       1.0  2.8890190054250245e-09  0.9999999964099866  0.9999999637100784  1.0000
  Cl  Cl1       1.0  0.2656277290207713  0.2656278295735703  0.7343722239510715  1.0000
  Cl  Cl2       1.0  0.7343722038548882  0.7343722265475737  0.2656277845760164  1.0000
  Cl  Cl3       1.0  0.7343722345100131  0.26562777137561766  0.26562775370780595  1.0000
  Cl  Cl4       1.0  0.2656277578031573  0.7343722739754867  0.7343722290199302  1.0000
  Cl  Cl5       1.0  0.26562771520761336  0.7343722341088934  0.2656278240053548  1.0000
  Cl  Cl6       1.0  0.7343722846962164  0.2656277681620526  0.7343722072450822  1.0000
