data_image0
_chemical_formula_structural       V2PbF6
_chemical_formula_sum              "V2 Pb1 F6"
_cell_length_a       5.9292255546815955
_cell_length_b       5.929226368050598
_cell_length_c       5.929225526273336
_cell_angle_alpha    59.99999814817878
_cell_angle_beta     60.000001832764795
_cell_angle_gamma    60.00000020804191

_space_group_name_H-M_alt    "P 1"
_space_group_IT_number       1

loop_
  _space_group_symop_operation_xyz
  'x, y, z'

loop_
  _atom_site_type_symbol
  _atom_site_label
  _atom_site_symmetry_multiplicity
  _atom_site_fract_x
  _atom_site_fract_y
  _atom_site_fract_z
  _atom_site_occupancy
  V   V1        1.0  0.2499998529576494  0.25000103590339734  0.24999907528127652  1.0000
  V   V2        1.0  0.7499993486687039  0.7500005133082442  0.7500000853356774  1.0000
  Pb  Pb1       1.0  1.601177885239971e-08  4.544334966986844e-08  0.9999998984368754  1.0000
  F   F1        1.0  0.25648038925216476  0.2564807661025811  0.7435194101306751  1.0000
  F   F2        1.0  0.7435201460936504  0.7435187216336491  0.2564806996010082  1.0000
  F   F3        1.0  0.7435193197255558  0.2564802882184127  0.25648074996362563  1.0000
  F   F4        1.0  0.256480902394493  0.7435190466629223  0.7435197783300921  1.0000
  F   F5        1.0  0.2564810190860644  0.7435195775123842  0.2564802236846479  1.0000
  F   F6        1.0  0.7435188819302894  0.2564801539654363  0.7435200003860274  1.0000
