data_image0
_chemical_formula_structural       V2PCl6
_chemical_formula_sum              "V2 P1 Cl6"
_cell_length_a       6.648053569583903
_cell_length_b       6.648053322621954
_cell_length_c       6.648053520678832
_cell_angle_alpha    59.999999323186664
_cell_angle_beta     59.99999759030142
_cell_angle_gamma    59.999998563917956

_space_group_name_H-M_alt    "P 1"
_space_group_IT_number       1

loop_
  _space_group_symop_operation_xyz
  'x, y, z'

loop_
  _atom_site_type_symbol
  _atom_site_label
  _atom_site_symmetry_multiplicity
  _atom_site_fract_x
  _atom_site_fract_y
  _atom_site_fract_z
  _atom_site_occupancy
  V   V1        1.0  0.24999982671009655  0.2500000454167043  0.25000023394334764  1.0000
  V   V2        1.0  0.7499995726647833  0.7499998378038416  0.7500006618869594  1.0000
  P   P1        1.0  0.9999999886845825  0.9999999557857386  8.191602814083311e-08  1.0000
  Cl  Cl1       1.0  0.24977072831205946  0.24977055068280113  0.7502292777567745  1.0000
  Cl  Cl2       1.0  0.7502294273669367  0.75022944491565  0.24977042260746732  1.0000
  Cl  Cl3       1.0  0.750229546787687  0.24977073106150494  0.24977032973466887  1.0000
  Cl  Cl4       1.0  0.24977068992650833  0.7502294174446016  0.7502291874733581  1.0000
  Cl  Cl5       1.0  0.2497708366903196  0.7502293351434233  0.24977047817948161  1.0000
  Cl  Cl6       1.0  0.7502293979559131  0.24977067887763885  0.7502292983384082  1.0000
