data_image0
_chemical_formula_structural       V2PCl6
_chemical_formula_sum              "V2 P1 Cl6"
_cell_length_a       6.647790772157182
_cell_length_b       6.647790953992122
_cell_length_c       6.647790877467707
_cell_angle_alpha    59.999997733058706
_cell_angle_beta     59.99999711322394
_cell_angle_gamma    59.99999667874509

_space_group_name_H-M_alt    "P 1"
_space_group_IT_number       1

loop_
  _space_group_symop_operation_xyz
  'x, y, z'

loop_
  _atom_site_type_symbol
  _atom_site_label
  _atom_site_symmetry_multiplicity
  _atom_site_fract_x
  _atom_site_fract_y
  _atom_site_fract_z
  _atom_site_occupancy
  V   V1        1.0  0.25000006448314754  0.2500002026130643  0.24999977895421271  1.0000
  V   V2        1.0  0.7499997858190656  0.7499998193203913  0.7500001635846354  1.0000
  P   P1        1.0  1.4615227122163191e-08  0.9999999926306647  9.91538597305964e-09  1.0000
  Cl  Cl1       1.0  0.24970617980374135  0.24970608930048258  0.7502938608860522  1.0000
  Cl  Cl2       1.0  0.7502938458631194  0.7502938755206225  0.24970615490144718  1.0000
  Cl  Cl3       1.0  0.750293853761127  0.24970629972160138  0.24970604662834658  1.0000
  Cl  Cl4       1.0  0.24970628507057013  0.7502937424775113  0.7502940243136385  1.0000
  Cl  Cl5       1.0  0.24970612542066592  0.7502938819968225  0.24970612159133604  1.0000
  Cl  Cl6       1.0  0.750293844961208  0.24970609756295453  0.7502938512904389  1.0000
