data_image0
_chemical_formula_structural       V2PdBr6
_chemical_formula_sum              "V2 Pd1 Br6"
_cell_length_a       6.96632512284548
_cell_length_b       6.966324923765427
_cell_length_c       6.966324959704982
_cell_angle_alpha    60.000000497264196
_cell_angle_beta     59.99999984465935
_cell_angle_gamma    60.00000009348562

_space_group_name_H-M_alt    "P 1"
_space_group_IT_number       1

loop_
  _space_group_symop_operation_xyz
  'x, y, z'

loop_
  _atom_site_type_symbol
  _atom_site_label
  _atom_site_symmetry_multiplicity
  _atom_site_fract_x
  _atom_site_fract_y
  _atom_site_fract_z
  _atom_site_occupancy
  V   V1        1.0  0.24999999864678718  0.24999998796288186  0.24999999043090046  1.0000
  V   V2        1.0  0.7499999880203165  0.7500000025666965  0.7499999573491758  1.0000
  Pd  Pd1       1.0  1.9203975129581535e-08  7.032373447006839e-09  2.851066171697879e-08  1.0000
  Br  Br1       1.0  0.25158342717067855  0.25158340259665607  0.748416599015125  1.0000
  Br  Br2       1.0  0.7484165750003701  0.7484165861748302  0.2515834380689907  1.0000
  Br  Br3       1.0  0.7484165709001989  0.2515834299063582  0.25158342162869235  1.0000
  Br  Br4       1.0  0.25158346606206805  0.7484165887527128  0.7484165429226629  1.0000
  Br  Br5       1.0  0.25158339464942603  0.7484165832447942  0.25158342760101393  1.0000
  Br  Br6       1.0  0.7484165580796286  0.2515834195914372  0.7484165869783679  1.0000
