data_image0
_chemical_formula_structural       V2PdI6
_chemical_formula_sum              "V2 Pd1 I6"
_cell_length_a       7.531581183001971
_cell_length_b       7.5315811731601725
_cell_length_c       7.531581179973593
_cell_angle_alpha    60.00000058903447
_cell_angle_beta     60.000000007056336
_cell_angle_gamma    60.00000019167886

_space_group_name_H-M_alt    "P 1"
_space_group_IT_number       1

loop_
  _space_group_symop_operation_xyz
  'x, y, z'

loop_
  _atom_site_type_symbol
  _atom_site_label
  _atom_site_symmetry_multiplicity
  _atom_site_fract_x
  _atom_site_fract_y
  _atom_site_fract_z
  _atom_site_occupancy
  V   V1        1.0  0.2500000152839758  0.2499999709688363  0.25000002662138887  1.0000
  V   V2        1.0  0.750000013251968  0.7499999877092128  0.7500000202582636  1.0000
  Pd  Pd1       1.0  0.9999999917922269  1.626145579124427e-09  0.9999999793914498  1.0000
  I   I1        1.0  0.25406037762387795  0.25406039860371693  0.7459396077551886  1.0000
  I   I2        1.0  0.7459396098412873  0.7459396234940158  0.2540603695293441  1.0000
  I   I3        1.0  0.7459396207076877  0.2540603752728632  0.25406036502975127  1.0000
  I   I4        1.0  0.2540603788525917  0.7459396289372663  0.7459396244452232  1.0000
  I   I5        1.0  0.25406036642556407  0.7459396157174227  0.2540603875500771  1.0000
  I   I6        1.0  0.7459396300684253  0.254060388492707  0.7459396193909514  1.0000
