data_image0
_chemical_formula_structural       V2PdF6
_chemical_formula_sum              "V2 Pd1 F6"
_cell_length_a       5.162917082781498
_cell_length_b       5.162916922595448
_cell_length_c       5.162916753514955
_cell_angle_alpha    60.00000033938367
_cell_angle_beta     60.00000035994431
_cell_angle_gamma    60.00000049030787

_space_group_name_H-M_alt    "P 1"
_space_group_IT_number       1

loop_
  _space_group_symop_operation_xyz
  'x, y, z'

loop_
  _atom_site_type_symbol
  _atom_site_label
  _atom_site_symmetry_multiplicity
  _atom_site_fract_x
  _atom_site_fract_y
  _atom_site_fract_z
  _atom_site_occupancy
  V   V1        1.0  0.24999987889468725  0.2500000614648506  0.2499997758780313  1.0000
  V   V2        1.0  0.749999890524254  0.7499998522871716  0.7500003080960542  1.0000
  Pd  Pd1       1.0  2.012874613252917e-08  1.6598243601378395e-16  0.9999999957462955  1.0000
  F   F1        1.0  0.2689087079197268  0.2689086276488499  0.7310914194377778  1.0000
  F   F2        1.0  0.7310913498522953  0.731091333547086  0.26890868257921224  1.0000
  F   F3        1.0  0.7310914676638287  0.26890877920021194  0.26890849969818365  1.0000
  F   F4        1.0  0.26890861888843803  0.7310912365562227  0.7310914231292693  1.0000
  F   F5        1.0  0.26890884545954485  0.7310913797299521  0.2689084811214648  1.0000
  F   F6        1.0  0.7310912657836371  0.2689087095645456  0.7310913809701602  1.0000
