data_image0
_chemical_formula_structural       V2PF6
_chemical_formula_sum              "V2 P1 F6"
_cell_length_a       5.41081045145773
_cell_length_b       5.410810018749859
_cell_length_c       5.41080945532526
_cell_angle_alpha    60.00000136044096
_cell_angle_beta     59.99999089267213
_cell_angle_gamma    59.99999043937894

_space_group_name_H-M_alt    "P 1"
_space_group_IT_number       1

loop_
  _space_group_symop_operation_xyz
  'x, y, z'

loop_
  _atom_site_type_symbol
  _atom_site_label
  _atom_site_symmetry_multiplicity
  _atom_site_fract_x
  _atom_site_fract_y
  _atom_site_fract_z
  _atom_site_occupancy
  V   V1        1.0  0.2500063250845906  0.25000084070070505  0.24999265161979004  1.0000
  V   V2        1.0  0.7500041000107411  0.7500004758861991  0.7499942184896421  1.0000
  P   P1        1.0  0.9999990835403736  0.999999900405447  1.2084769224489955e-06  1.0000
  F   F1        1.0  0.24808596813828865  0.2480872528790532  0.7519149251872822  1.0000
  F   F2        1.0  0.7519117743746839  0.7519140184389448  0.2480879839265886  1.0000
  F   F3        1.0  0.7519109132973069  0.24808611108365075  0.24808844688676612  1.0000
  F   F4        1.0  0.24808646630876421  0.7519118826648354  0.7519152844631567  1.0000
  F   F5        1.0  0.24808477166568013  0.751912825365631  0.2480891881647877  1.0000
  F   F6        1.0  0.7519105885098093  0.24808665551232462  0.7519160217238158  1.0000
