data_image0
_chemical_formula_structural       V2PF6
_chemical_formula_sum              "V2 P1 F6"
_cell_length_a       5.411612897985832
_cell_length_b       5.411611122664448
_cell_length_c       5.411611719525905
_cell_angle_alpha    59.99998711910359
_cell_angle_beta     59.99999169718148
_cell_angle_gamma    60.000008629446604

_space_group_name_H-M_alt    "P 1"
_space_group_IT_number       1

loop_
  _space_group_symop_operation_xyz
  'x, y, z'

loop_
  _atom_site_type_symbol
  _atom_site_label
  _atom_site_symmetry_multiplicity
  _atom_site_fract_x
  _atom_site_fract_y
  _atom_site_fract_z
  _atom_site_occupancy
  V   V1        1.0  0.2500036673155444  0.24999869667889732  0.24999480021473006  1.0000
  V   V2        1.0  0.7499987870964261  0.7499996273833233  0.7500022473877187  1.0000
  P   P1        1.0  0.9999997666489322  0.9999998166823704  9.376593272902674e-08  1.0000
  F   F1        1.0  0.24804317082206895  0.2480419617103117  0.7519597601221387  1.0000
  F   F2        1.0  0.7519548813753174  0.7519586164778597  0.24804272621358908  1.0000
  F   F3        1.0  0.7519580563976743  0.2480432095266104  0.2480416452474916  1.0000
  F   F4        1.0  0.2480433149252641  0.7519555920662159  0.7519578338900943  1.0000
  F   F5        1.0  0.24804383719499448  0.7519585823087586  0.24804159127823858  1.0000
  F   F6        1.0  0.7519547561669767  0.24804382905534308  0.7519591553714212  1.0000
