data_image0
_chemical_formula_structural       V2PI6
_chemical_formula_sum              "V2 P1 I6"
_cell_length_a       7.602255421882213
_cell_length_b       7.602255676533661
_cell_length_c       7.60225554954541
_cell_angle_alpha    60.00000007930166
_cell_angle_beta     59.99999973889361
_cell_angle_gamma    60.0000011451619

_space_group_name_H-M_alt    "P 1"
_space_group_IT_number       1

loop_
  _space_group_symop_operation_xyz
  'x, y, z'

loop_
  _atom_site_type_symbol
  _atom_site_label
  _atom_site_symmetry_multiplicity
  _atom_site_fract_x
  _atom_site_fract_y
  _atom_site_fract_z
  _atom_site_occupancy
  V   V1        1.0  0.2499999793418179  0.2500000429603918  0.24999997867535179  1.0000
  V   V2        1.0  0.750000008494728  0.750000017720227  0.7499999787336775  1.0000
  P   P1        1.0  8.223605729722042e-09  0.9999999935558872  0.9999999754330701  1.0000
  I   I1        1.0  0.25739812661021644  0.25739807801771136  0.7426018973978838  1.0000
  I   I2        1.0  0.7426018764784802  0.7426018731129865  0.25739814399120503  1.0000
  I   I3        1.0  0.7426018694370814  0.25739813119271404  0.2573981400180628  1.0000
  I   I4        1.0  0.2573981149484223  0.7426018714908876  0.7426018809999734  1.0000
  I   I5        1.0  0.2573981284637616  0.7426018585234994  0.2573981387627896  1.0000
  I   I6        1.0  0.7426018829090619  0.2573981361049615  0.7426018675275609  1.0000
