data_image0
_chemical_formula_structural       V2PI6
_chemical_formula_sum              "V2 P1 I6"
_cell_length_a       7.601922215254426
_cell_length_b       7.60192229395324
_cell_length_c       7.6019224634150175
_cell_angle_alpha    59.99999860679613
_cell_angle_beta     59.999998349341084
_cell_angle_gamma    59.99999920801785

_space_group_name_H-M_alt    "P 1"
_space_group_IT_number       1

loop_
  _space_group_symop_operation_xyz
  'x, y, z'

loop_
  _atom_site_type_symbol
  _atom_site_label
  _atom_site_symmetry_multiplicity
  _atom_site_fract_x
  _atom_site_fract_y
  _atom_site_fract_z
  _atom_site_occupancy
  V   V1        1.0  0.25000003205660365  0.2500000036446518  0.2499999993391376  1.0000
  V   V2        1.0  0.7499999988485079  0.7500000431559345  0.7499999490087583  1.0000
  P   P1        1.0  0.9999999760336052  3.544417648981693e-08  0.9999999837374552  1.0000
  I   I1        1.0  0.2573304639223974  0.25733052852202276  0.742669516728617  1.0000
  I   I2        1.0  0.7426695197581411  0.7426694457791115  0.2573305085822295  1.0000
  I   I3        1.0  0.7426695075010822  0.2573304927941708  0.2573305137661295  1.0000
  I   I4        1.0  0.25733051737562057  0.74266947184037  0.7426694918335612  1.0000
  I   I5        1.0  0.25733049606826996  0.742669498568158  0.25733052154558594  1.0000
  I   I6        1.0  0.7426694919848639  0.2573304853995698  0.7426695112156899  1.0000
