data_image0
_chemical_formula_structural       V2PtBr6
_chemical_formula_sum              "V2 Pt1 Br6"
_cell_length_a       6.966348554208027
_cell_length_b       6.966348703714993
_cell_length_c       6.966348734416145
_cell_angle_alpha    59.999999867292125
_cell_angle_beta     60.00000007481326
_cell_angle_gamma    60.00000012093287

_space_group_name_H-M_alt    "P 1"
_space_group_IT_number       1

loop_
  _space_group_symop_operation_xyz
  'x, y, z'

loop_
  _atom_site_type_symbol
  _atom_site_label
  _atom_site_symmetry_multiplicity
  _atom_site_fract_x
  _atom_site_fract_y
  _atom_site_fract_z
  _atom_site_occupancy
  V   V1        1.0  0.24999997279039293  0.2500000654730135  0.24999996869717875  1.0000
  V   V2        1.0  0.7500000489521591  0.7499999836904849  0.750000024680824  1.0000
  Pt  Pt1       1.0  0.9999999818676006  0.9999999947257383  3.467088577272299e-08  1.0000
  Br  Br1       1.0  0.24959258556970035  0.24959262355767423  0.7504074023242017  1.0000
  Br  Br2       1.0  0.7504074008962681  0.7504073922021669  0.24959259955542165  1.0000
  Br  Br3       1.0  0.7504073695459117  0.2495926005231422  0.24959263170267695  1.0000
  Br  Br4       1.0  0.2495926240702031  0.7504073589779074  0.7504073875539078  1.0000
  Br  Br5       1.0  0.2495926027048103  0.7504073940683127  0.24959258042682594  1.0000
  Br  Br6       1.0  0.7504074108850868  0.2495925900459584  0.7504073749075632  1.0000
