data_image0
_chemical_formula_structural       V2PtF6
_chemical_formula_sum              "V2 Pt1 F6"
_cell_length_a       5.42834983291485
_cell_length_b       5.428352107278557
_cell_length_c       5.428359946485674
_cell_angle_alpha    59.99996905651988
_cell_angle_beta     59.99994125382108
_cell_angle_gamma    59.99990087086392

_space_group_name_H-M_alt    "P 1"
_space_group_IT_number       1

loop_
  _space_group_symop_operation_xyz
  'x, y, z'

loop_
  _atom_site_type_symbol
  _atom_site_label
  _atom_site_symmetry_multiplicity
  _atom_site_fract_x
  _atom_site_fract_y
  _atom_site_fract_z
  _atom_site_occupancy
  V   V1        1.0  0.24998393498517618  0.2500019102803754  0.24999166183306165  1.0000
  V   V2        1.0  0.7500188191020715  0.7500229230387432  0.7499602478705222  1.0000
  Pt  Pt1       1.0  0.9999996709694623  0.9999979558824081  3.99220941325527e-06  1.0000
  F   F1        1.0  0.2590434940130513  0.25904097066333975  0.7409646634833199  1.0000
  F   F2        1.0  0.7409594878852518  0.7409527586727719  0.25905066011866196  1.0000
  F   F3        1.0  0.7409665593381858  0.25902883715194225  0.2590586368420043  1.0000
  F   F4        1.0  0.2590359645527134  0.7409576001413785  0.7409575756151732  1.0000
  F   F5        1.0  0.25902808493038626  0.7409613377340458  0.2590602965893093  1.0000
  F   F6        1.0  0.7409638491912269  0.2590356631029388  0.7409524491093835  1.0000
