data_image0
_chemical_formula_structural       V2PtI6
_chemical_formula_sum              "V2 Pt1 I6"
_cell_length_a       7.543725592419977
_cell_length_b       7.543725552996739
_cell_length_c       7.543725579468202
_cell_angle_alpha    59.999999924084726
_cell_angle_beta     59.9999995279917
_cell_angle_gamma    59.99999949729871

_space_group_name_H-M_alt    "P 1"
_space_group_IT_number       1

loop_
  _space_group_symop_operation_xyz
  'x, y, z'

loop_
  _atom_site_type_symbol
  _atom_site_label
  _atom_site_symmetry_multiplicity
  _atom_site_fract_x
  _atom_site_fract_y
  _atom_site_fract_z
  _atom_site_occupancy
  V   V1        1.0  0.24999998002647697  0.2500000219362892  0.24999999282822302  1.0000
  V   V2        1.0  0.7500000260148931  0.7500000008677522  0.7500000077556438  1.0000
  Pt  Pt1       1.0  0.9999999933361168  1.6235279721581574e-09  3.168348662275883e-08  1.0000
  I   I1        1.0  0.2525915050910645  0.2525915292000906  0.7474084899457556  1.0000
  I   I2        1.0  0.7474084880867954  0.7474084724980885  0.25259151436674826  1.0000
  I   I3        1.0  0.7474085288579246  0.2525914911946698  0.25259148978880963  1.0000
  I   I4        1.0  0.252591519718783  0.7474084682917841  0.7474084840692433  1.0000
  I   I5        1.0  0.2525915098647566  0.7474085011718269  0.2525914924476956  1.0000
  I   I6        1.0  0.7474084488184853  0.252591516761631  0.7474084971335888  1.0000
