data_image0
_chemical_formula_structural       V2ReBr6
_chemical_formula_sum              "V2 Re1 Br6"
_cell_length_a       7.085424220765875
_cell_length_b       7.085424341732643
_cell_length_c       7.0854242489152535
_cell_angle_alpha    59.99999952815603
_cell_angle_beta     59.99999902588433
_cell_angle_gamma    59.99999987760486

_space_group_name_H-M_alt    "P 1"
_space_group_IT_number       1

loop_
  _space_group_symop_operation_xyz
  'x, y, z'

loop_
  _atom_site_type_symbol
  _atom_site_label
  _atom_site_symmetry_multiplicity
  _atom_site_fract_x
  _atom_site_fract_y
  _atom_site_fract_z
  _atom_site_occupancy
  V   V1        1.0  0.25000005224285293  0.249999952460148  0.24999998666024187  1.0000
  V   V2        1.0  0.7500000813816996  0.7500000198633275  0.7499999615758518  1.0000
  Re  Re1       1.0  0.9999999729534413  2.2471037311059597e-08  0.9999999797061913  1.0000
  Br  Br1       1.0  0.24895811459868303  0.2489581916394753  0.7510418804404381  1.0000
  Br  Br2       1.0  0.7510418730942431  0.7510418273546157  0.2489581625893004  1.0000
  Br  Br3       1.0  0.7510418255358233  0.2489581276945398  0.2489581489133977  1.0000
  Br  Br4       1.0  0.2489581029122835  0.7510418930280929  0.7510418537184235  1.0000
  Br  Br5       1.0  0.2489581218278151  0.751041863739064  0.24895815226690943  1.0000
  Br  Br6       1.0  0.7510418541946716  0.2489581120414943  0.7510418730416767  1.0000
