data_image0
_chemical_formula_structural       V2ReF6
_chemical_formula_sum              "V2 Re1 F6"
_cell_length_a       5.256357488156346
_cell_length_b       5.256357906035647
_cell_length_c       5.256357782124512
_cell_angle_alpha    59.99999566876062
_cell_angle_beta     59.99999779289248
_cell_angle_gamma    59.99999667260637

_space_group_name_H-M_alt    "P 1"
_space_group_IT_number       1

loop_
  _space_group_symop_operation_xyz
  'x, y, z'

loop_
  _atom_site_type_symbol
  _atom_site_label
  _atom_site_symmetry_multiplicity
  _atom_site_fract_x
  _atom_site_fract_y
  _atom_site_fract_z
  _atom_site_occupancy
  V   V1        1.0  0.2499999166484655  0.2500001551554002  0.25000024654316144  1.0000
  V   V2        1.0  0.7499997415737797  0.7499995218057763  0.7500011604742588  1.0000
  Re  Re1       1.0  1.0739805169541433e-07  0.9999999743697271  0.9999997308211493  1.0000
  F   F1        1.0  0.2690425626107625  0.26904286995979987  0.7309572950217385  1.0000
  F   F2        1.0  0.730957535559127  0.7309571215549232  0.26904230029172893  1.0000
  F   F3        1.0  0.7309572799982352  0.2690428813072907  0.2690423347537659  1.0000
  F   F4        1.0  0.26904277995844494  0.730957270979209  0.7309572106951596  1.0000
  F   F5        1.0  0.26904276431798646  0.7309574019704692  0.2690425002050324  1.0000
  F   F6        1.0  0.7309572005113267  0.2690427852664076  0.7309572788953946  1.0000
