data_image0
_chemical_formula_structural       V2ReCl6
_chemical_formula_sum              "V2 Re1 Cl6"
_cell_length_a       6.704443940150137
_cell_length_b       6.7044441582331205
_cell_length_c       6.70444382677082
_cell_angle_alpha    60.00000051301989
_cell_angle_beta     60.000001260603305
_cell_angle_gamma    60.000000849586655

_space_group_name_H-M_alt    "P 1"
_space_group_IT_number       1

loop_
  _space_group_symop_operation_xyz
  'x, y, z'

loop_
  _atom_site_type_symbol
  _atom_site_label
  _atom_site_symmetry_multiplicity
  _atom_site_fract_x
  _atom_site_fract_y
  _atom_site_fract_z
  _atom_site_occupancy
  V   V1        1.0  0.24999990875567135  0.2500000240973607  0.25000008745995705  1.0000
  V   V2        1.0  0.7500001336173214  0.7499999352846557  0.7500000287662641  1.0000
  Re  Re1       1.0  0.9999999834039336  0.999999967118218  0.9999999874502236  1.0000
  Cl  Cl1       1.0  0.25000901415281623  0.2500090881290096  0.7499909067815073  1.0000
  Cl  Cl2       1.0  0.7499908759599978  0.7499910283548592  0.2500090683099077  1.0000
  Cl  Cl3       1.0  0.7499909305983152  0.25000914224298404  0.2500090564065988  1.0000
  Cl  Cl4       1.0  0.25000900577463914  0.749990866461708  0.7499909777837481  1.0000
  Cl  Cl5       1.0  0.2500090760515812  0.7499909033764782  0.25000906340846774  1.0000
  Cl  Cl6       1.0  0.7499910787927138  0.2500090286040553  0.7499908208562445  1.0000
