data_image0
_chemical_formula_structural       V2ReI6
_chemical_formula_sum              "V2 Re1 I6"
_cell_length_a       7.6227504747098935
_cell_length_b       7.6227505078880995
_cell_length_c       7.622750543352978
_cell_angle_alpha    60.000000284911565
_cell_angle_beta     59.99999981634067
_cell_angle_gamma    60.00000026503763

_space_group_name_H-M_alt    "P 1"
_space_group_IT_number       1

loop_
  _space_group_symop_operation_xyz
  'x, y, z'

loop_
  _atom_site_type_symbol
  _atom_site_label
  _atom_site_symmetry_multiplicity
  _atom_site_fract_x
  _atom_site_fract_y
  _atom_site_fract_z
  _atom_site_occupancy
  V   V1        1.0  0.2499999829485145  0.2500000011441639  0.24999999303627904  1.0000
  V   V2        1.0  0.7500000037304296  0.7500000114659757  0.7500000014360115  1.0000
  Re  Re1       1.0  0.9999999931295358  1.606696798062844e-08  4.656438265787163e-08  1.0000
  I   I1        1.0  0.25000703210609193  0.2500070262872196  0.7499929910863451  1.0000
  I   I2        1.0  0.749992976591399  0.7499929702559524  0.2500070174643673  1.0000
  I   I3        1.0  0.7499929978245619  0.25000700472471943  0.2500069940665135  1.0000
  I   I4        1.0  0.25000703950203984  0.7499929468309426  0.7499929754363511  1.0000
  I   I5        1.0  0.25000700741326487  0.7499929686600142  0.25000700197171527  1.0000
  I   I6        1.0  0.7499929655405163  0.2500070487702156  0.7499929812107624  1.0000
