data_image0
_chemical_formula_structural       V2RhF6
_chemical_formula_sum              "V2 Rh1 F6"
_cell_length_a       5.035053251257265
_cell_length_b       5.035053093293429
_cell_length_c       5.035053270303202
_cell_angle_alpha    60.000000634933926
_cell_angle_beta     60.000001338234995
_cell_angle_gamma    59.999999638947195

_space_group_name_H-M_alt    "P 1"
_space_group_IT_number       1

loop_
  _space_group_symop_operation_xyz
  'x, y, z'

loop_
  _atom_site_type_symbol
  _atom_site_label
  _atom_site_symmetry_multiplicity
  _atom_site_fract_x
  _atom_site_fract_y
  _atom_site_fract_z
  _atom_site_occupancy
  V   V1        1.0  0.2499999937806741  0.24999989712127757  0.25000001599388605  1.0000
  V   V2        1.0  0.750000078003238  0.750000034337429  0.7499998440528682  1.0000
  Rh  Rh1       1.0  2.2539761638817954e-08  0.9999999805405047  0.9999999726408748  1.0000
  F   F1        1.0  0.2714986611436131  0.27149875435494153  0.7285013008681437  1.0000
  F   F2        1.0  0.7285013104971475  0.7285012573741844  0.2714987359453864  1.0000
  F   F3        1.0  0.7285012789300764  0.2714986127624899  0.2714988210190821  1.0000
  F   F4        1.0  0.27149867070350786  0.7285014305883157  0.7285012526947992  1.0000
  F   F5        1.0  0.27149869757045086  0.7285013435307757  0.27149870576245855  1.0000
  F   F6        1.0  0.7285012994359805  0.27149866090104025  0.7285013736548754  1.0000
