data_image0
_chemical_formula_structural       V2RhI6
_chemical_formula_sum              "V2 Rh1 I6"
_cell_length_a       7.518985356786421
_cell_length_b       7.51898524662843
_cell_length_c       7.518985319800286
_cell_angle_alpha    59.99999994201786
_cell_angle_beta     59.99999958185162
_cell_angle_gamma    59.999999214376146

_space_group_name_H-M_alt    "P 1"
_space_group_IT_number       1

loop_
  _space_group_symop_operation_xyz
  'x, y, z'

loop_
  _atom_site_type_symbol
  _atom_site_label
  _atom_site_symmetry_multiplicity
  _atom_site_fract_x
  _atom_site_fract_y
  _atom_site_fract_z
  _atom_site_occupancy
  V   V1        1.0  0.25000000482795043  0.25000001910607217  0.24999998478753271  1.0000
  V   V2        1.0  0.7500000113512348  0.7500000068232499  0.750000014425557  1.0000
  Rh  Rh1       1.0  0.9999999870010076  0.9999999837113009  0.9999999946943454  1.0000
  I   I1        1.0  0.2505757958799203  0.2505757555366033  0.7494242183982504  1.0000
  I   I2        1.0  0.7494242351294241  0.7494242443308002  0.2505757771209519  1.0000
  I   I3        1.0  0.7494242174560802  0.25057579407908837  0.2505757633005878  1.0000
  I   I4        1.0  0.25057577010349347  0.7494242025305753  0.7494242382828032  1.0000
  I   I5        1.0  0.2505757789428122  0.7494242032007814  0.2505757745314978  1.0000
  I   I6        1.0  0.7494242025670652  0.25057578852227264  0.7494242258702126  1.0000
