data_image0
_chemical_formula_structural       V2RhI6
_chemical_formula_sum              "V2 Rh1 I6"
_cell_length_a       7.518934093938793
_cell_length_b       7.518934062688477
_cell_length_c       7.518933930252621
_cell_angle_alpha    60.00000020099781
_cell_angle_beta     60.00000015417119
_cell_angle_gamma    59.999999269936595

_space_group_name_H-M_alt    "P 1"
_space_group_IT_number       1

loop_
  _space_group_symop_operation_xyz
  'x, y, z'

loop_
  _atom_site_type_symbol
  _atom_site_label
  _atom_site_symmetry_multiplicity
  _atom_site_fract_x
  _atom_site_fract_y
  _atom_site_fract_z
  _atom_site_occupancy
  V   V1        1.0  0.25000000155564545  0.24999999236808074  0.25000001120573395  1.0000
  V   V2        1.0  0.7500000145014132  0.7499999982796951  0.74999993831369  1.0000
  Rh  Rh1       1.0  0.9999999983711191  4.886643028425742e-09  0.9999999731015792  1.0000
  I   I1        1.0  0.2505773437376567  0.25057734324789266  0.7494226427092882  1.0000
  I   I2        1.0  0.749422648197625  0.7494226506576451  0.2505773970406899  1.0000
  I   I3        1.0  0.7494226865771895  0.25057731490696983  0.25057733546200817  1.0000
  I   I4        1.0  0.2505773225305254  0.7494226643386389  0.7494226963818392  1.0000
  I   I5        1.0  0.2505773029526019  0.7494226947499197  0.2505773353877401  1.0000
  I   I6        1.0  0.7494226800158426  0.25057733987764275  0.749422672524935  1.0000
