data_image0
_chemical_formula_structural       V2RhCl6
_chemical_formula_sum              "V2 Rh1 Cl6"
_cell_length_a       6.551098619336616
_cell_length_b       6.551098776214532
_cell_length_c       6.551098450647917
_cell_angle_alpha    60.00000158240591
_cell_angle_beta     59.999999462484844
_cell_angle_gamma    60.000000971158855

_space_group_name_H-M_alt    "P 1"
_space_group_IT_number       1

loop_
  _space_group_symop_operation_xyz
  'x, y, z'

loop_
  _atom_site_type_symbol
  _atom_site_label
  _atom_site_symmetry_multiplicity
  _atom_site_fract_x
  _atom_site_fract_y
  _atom_site_fract_z
  _atom_site_occupancy
  V   V1        1.0  0.24999995953451737  0.2500000119602802  0.25000000001349354  1.0000
  V   V2        1.0  0.7500000701259121  0.7499998208853693  0.7500001796878069  1.0000
  Rh  Rh1       1.0  9.222365638233911e-09  9.347629092150415e-09  0.9999999678180791  1.0000
  Cl  Cl1       1.0  0.2514242355235842  0.25142425267217966  0.7485757469405581  1.0000
  Cl  Cl2       1.0  0.7485757544124372  0.748575783951786  0.25142418282301626  1.0000
  Cl  Cl3       1.0  0.7485757771327872  0.25142430878278216  0.2514241395404462  1.0000
  Cl  Cl4       1.0  0.2514241704823468  0.748575759623123  0.7485758214424492  1.0000
  Cl  Cl5       1.0  0.2514242251271393  0.7485758227933927  0.25142419710883424  1.0000
  Cl  Cl6       1.0  0.7485757918528018  0.25142424374298633  0.7485757698144205  1.0000
