data_image0
_chemical_formula_structural       V2RhF6
_chemical_formula_sum              "V2 Rh1 F6"
_cell_length_a       5.03486950715609
_cell_length_b       5.034869451155056
_cell_length_c       5.034869655077147
_cell_angle_alpha    59.99999948960908
_cell_angle_beta     59.99999901298424
_cell_angle_gamma    60.000000143971114

_space_group_name_H-M_alt    "P 1"
_space_group_IT_number       1

loop_
  _space_group_symop_operation_xyz
  'x, y, z'

loop_
  _atom_site_type_symbol
  _atom_site_label
  _atom_site_symmetry_multiplicity
  _atom_site_fract_x
  _atom_site_fract_y
  _atom_site_fract_z
  _atom_site_occupancy
  V   V1        1.0  0.2500000252284378  0.24999988281968624  0.2500000678647189  1.0000
  V   V2        1.0  0.7500000692381288  0.7500000668534585  0.7499999380360899  1.0000
  Rh  Rh1       1.0  0.9999999661553672  0.9999999708096926  1.761442874915633e-08  1.0000
  F   F1        1.0  0.27150120296848856  0.2715011321851769  0.7284987973348226  1.0000
  F   F2        1.0  0.7284987763626305  0.7284989220865667  0.27150118205603146  1.0000
  F   F3        1.0  0.7284988872138128  0.27150117281731395  0.27150116152597703  1.0000
  F   F4        1.0  0.27150104166235  0.7284988814544292  0.7284988212447192  1.0000
  F   F5        1.0  0.2715011615042229  0.7284988455085872  0.27150114129831837  1.0000
  F   F6        1.0  0.7284988405304678  0.27150114065243974  0.7284988091562405  1.0000
