data_image0
_chemical_formula_structural       V2RhBr6
_chemical_formula_sum              "V2 Rh1 Br6"
_cell_length_a       6.92568248369447
_cell_length_b       6.925682585858312
_cell_length_c       6.925682507427871
_cell_angle_alpha    60.00000021773586
_cell_angle_beta     60.00000043235287
_cell_angle_gamma    59.999999763224366

_space_group_name_H-M_alt    "P 1"
_space_group_IT_number       1

loop_
  _space_group_symop_operation_xyz
  'x, y, z'

loop_
  _atom_site_type_symbol
  _atom_site_label
  _atom_site_symmetry_multiplicity
  _atom_site_fract_x
  _atom_site_fract_y
  _atom_site_fract_z
  _atom_site_occupancy
  V   V1        1.0  0.2500000035920632  0.2500000015490353  0.24999996730592786  1.0000
  V   V2        1.0  0.7500000584712136  0.7499999515947946  0.7500000807523514  1.0000
  Rh  Rh1       1.0  1.8929476195642267e-08  0.9999999982315896  0.9999999870877642  1.0000
  Br  Br1       1.0  0.24988498737487466  0.24988499106315612  0.7501149988915815  1.0000
  Br  Br2       1.0  0.7501149780529832  0.7501150169013954  0.24988497333267795  1.0000
  Br  Br3       1.0  0.7501149716497808  0.24988501126080093  0.24988499588042437  1.0000
  Br  Br4       1.0  0.2498849639520798  0.7501150161562645  0.7501149930817848  1.0000
  Br  Br5       1.0  0.24988502196400394  0.7501150039301258  0.24988497173251528  1.0000
  Br  Br6       1.0  0.7501149961259921  0.24988501110806652  0.7501150211603904  1.0000
