data_image0
_chemical_formula_structural       V2RhBr6
_chemical_formula_sum              "V2 Rh1 Br6"
_cell_length_a       6.925708775890805
_cell_length_b       6.925708622203212
_cell_length_c       6.925708606758961
_cell_angle_alpha    60.00000022243233
_cell_angle_beta     60.000000102090645
_cell_angle_gamma    60.00000077302132

_space_group_name_H-M_alt    "P 1"
_space_group_IT_number       1

loop_
  _space_group_symop_operation_xyz
  'x, y, z'

loop_
  _atom_site_type_symbol
  _atom_site_label
  _atom_site_symmetry_multiplicity
  _atom_site_fract_x
  _atom_site_fract_y
  _atom_site_fract_z
  _atom_site_occupancy
  V   V1        1.0  0.25000001229606916  0.25000001255946785  0.24999989073462897  1.0000
  V   V2        1.0  0.7500000469265109  0.7499999775526797  0.7500000062412496  1.0000
  Rh  Rh1       1.0  6.096952230104589e-09  0.999999971705541  0.9999999981036931  1.0000
  Br  Br1       1.0  0.24988292183898336  0.2498829446416219  0.750117084946272  1.0000
  Br  Br2       1.0  0.7501170674421688  0.7501170702281766  0.2498829169235432  1.0000
  Br  Br3       1.0  0.7501170779019137  0.24988293337527598  0.24988295639753313  1.0000
  Br  Br4       1.0  0.24988294699866406  0.7501170496632569  0.7501170782316957  1.0000
  Br  Br5       1.0  0.24988289437510158  0.7501170881594549  0.24988297833065015  1.0000
  Br  Br6       1.0  0.7501170328126262  0.24988294793118754  0.7501170887362185  1.0000
