data_image0
_chemical_formula_structural       V2RuBr6
_chemical_formula_sum              "V2 Ru1 Br6"
_cell_length_a       7.011568347522671
_cell_length_b       7.011568322237294
_cell_length_c       7.011568468050421
_cell_angle_alpha    60.00000045028102
_cell_angle_beta     59.999999406910995
_cell_angle_gamma    59.99999936284613

_space_group_name_H-M_alt    "P 1"
_space_group_IT_number       1

loop_
  _space_group_symop_operation_xyz
  'x, y, z'

loop_
  _atom_site_type_symbol
  _atom_site_label
  _atom_site_symmetry_multiplicity
  _atom_site_fract_x
  _atom_site_fract_y
  _atom_site_fract_z
  _atom_site_occupancy
  V   V1        1.0  0.24999997949425423  0.24999998451411828  0.24999996818231518  1.0000
  V   V2        1.0  0.7499999453840578  0.7500000810550195  0.7499999057982584  1.0000
  Ru  Ru1       1.0  1.811535647210814e-08  0.0  0.9999999994996083  1.0000
  Br  Br1       1.0  0.2494634472680606  0.2494633705649383  0.7505366105759101  1.0000
  Br  Br2       1.0  0.7505365848068575  0.7505366006797648  0.24946344237645054  1.0000
  Br  Br3       1.0  0.7505365801828889  0.24946340523329621  0.24946344874848517  1.0000
  Br  Br4       1.0  0.24946344453972064  0.7505365485439184  0.7505365994992008  1.0000
  Br  Br5       1.0  0.2494634275367477  0.7505365752204847  0.24946344733323303  1.0000
  Br  Br6       1.0  0.750536577489273  0.24946343270594334  0.7505365751308546  1.0000
