data_image0
_chemical_formula_structural       V2RuF6
_chemical_formula_sum              "V2 Ru1 F6"
_cell_length_a       5.291739704544636
_cell_length_b       5.291738677453819
_cell_length_c       5.291740538685455
_cell_angle_alpha    60.00000211198264
_cell_angle_beta     60.00000260910504
_cell_angle_gamma    60.00000317809508

_space_group_name_H-M_alt    "P 1"
_space_group_IT_number       1

loop_
  _space_group_symop_operation_xyz
  'x, y, z'

loop_
  _atom_site_type_symbol
  _atom_site_label
  _atom_site_symmetry_multiplicity
  _atom_site_fract_x
  _atom_site_fract_y
  _atom_site_fract_z
  _atom_site_occupancy
  V   V1        1.0  0.24999980564096091  0.250001169339315  0.250000895102306  1.0000
  V   V2        1.0  0.7500004390380025  0.7500010570181787  0.7499995579129156  1.0000
  Ru  Ru1       1.0  2.014937630844073e-08  0.9999997824419691  0.9999999626432132  1.0000
  F   F1        1.0  0.2600414614101663  0.26004125537313655  0.7399579718172615  1.0000
  F   F2        1.0  0.739958754993889  0.7399581427298625  0.2600415378419305  1.0000
  F   F3        1.0  0.7399583006805293  0.2600409647256946  0.2600417535058627  1.0000
  F   F4        1.0  0.26004124822605174  0.739958498181832  0.7399584505651488  1.0000
  F   F5        1.0  0.26004120769789263  0.7399580742118922  0.26004157587472276  1.0000
  F   F6        1.0  0.7399587535843748  0.26004100912632255  0.7399583566785376  1.0000
