data_image0
_chemical_formula_structural       V2RuI6
_chemical_formula_sum              "V2 Ru1 I6"
_cell_length_a       7.55342753334022
_cell_length_b       7.553427547355187
_cell_length_c       7.553427548385916
_cell_angle_alpha    59.99999983079215
_cell_angle_beta     60.00000045997153
_cell_angle_gamma    59.99999968891204

_space_group_name_H-M_alt    "P 1"
_space_group_IT_number       1

loop_
  _space_group_symop_operation_xyz
  'x, y, z'

loop_
  _atom_site_type_symbol
  _atom_site_label
  _atom_site_symmetry_multiplicity
  _atom_site_fract_x
  _atom_site_fract_y
  _atom_site_fract_z
  _atom_site_occupancy
  V   V1        1.0  0.24999999466529454  0.24999998476544508  0.24999999717288446  1.0000
  V   V2        1.0  0.7499999994366335  0.7499999996967261  0.7500000193497833  1.0000
  Ru  Ru1       1.0  0.9999999890367398  0.9999999870284598  0.9999999828415499  1.0000
  I   I1        1.0  0.25092076914643713  0.2509207643823118  0.7490792420776252  1.0000
  I   I2        1.0  0.7490792401339554  0.7490792525087101  0.2509207479935804  1.0000
  I   I3        1.0  0.7490792348857559  0.2509207618356016  0.2509207715538401  1.0000
  I   I4        1.0  0.25092076496008753  0.74907924208388  0.7490792323682149  1.0000
  I   I5        1.0  0.25092074242444923  0.7490792650825929  0.25092076620897175  1.0000
  I   I6        1.0  0.749079268122369  0.2509207388368887  0.7490792403060097  1.0000
