data_image0
_chemical_formula_structural       V2RuCl6
_chemical_formula_sum              "V2 Ru1 Cl6"
_cell_length_a       6.630757517978809
_cell_length_b       6.630757602765381
_cell_length_c       6.630757325062442
_cell_angle_alpha    60.000000697087344
_cell_angle_beta     60.00000011633761
_cell_angle_gamma    60.00000222109112

_space_group_name_H-M_alt    "P 1"
_space_group_IT_number       1

loop_
  _space_group_symop_operation_xyz
  'x, y, z'

loop_
  _atom_site_type_symbol
  _atom_site_label
  _atom_site_symmetry_multiplicity
  _atom_site_fract_x
  _atom_site_fract_y
  _atom_site_fract_z
  _atom_site_occupancy
  V   V1        1.0  0.24999982583034808  0.2500001244477739  0.2500000773806788  1.0000
  V   V2        1.0  0.7500000406494568  0.7499999115767711  0.7500003292421932  1.0000
  Ru  Ru1       1.0  2.058026330950382e-08  1.662359647974045e-08  0.9999999979874268  1.0000
  Cl  Cl1       1.0  0.25122881039452943  0.25122878878446353  0.7487712434855137  1.0000
  Cl  Cl2       1.0  0.7487712137647679  0.748771197369298  0.25122864774725556  1.0000
  Cl  Cl3       1.0  0.748771175058403  0.251228828742754  0.2512287620837947  1.0000
  Cl  Cl4       1.0  0.2512287624156495  0.7487711980464634  0.7487711476494995  1.0000
  Cl  Cl5       1.0  0.2512288494311173  0.7487711116789012  0.25122877497384344  1.0000
  Cl  Cl6       1.0  0.7487712831375541  0.2512288209099416  0.7487710224792699  1.0000
