data_image0
_chemical_formula_structural       V2RuI6
_chemical_formula_sum              "V2 Ru1 I6"
_cell_length_a       7.553480503435359
_cell_length_b       7.553480503676726
_cell_length_c       7.5534805290072145
_cell_angle_alpha    59.99999985108357
_cell_angle_beta     60.00000027830101
_cell_angle_gamma    60.000000190938785

_space_group_name_H-M_alt    "P 1"
_space_group_IT_number       1

loop_
  _space_group_symop_operation_xyz
  'x, y, z'

loop_
  _atom_site_type_symbol
  _atom_site_label
  _atom_site_symmetry_multiplicity
  _atom_site_fract_x
  _atom_site_fract_y
  _atom_site_fract_z
  _atom_site_occupancy
  V   V1        1.0  0.2500000014050612  0.2500000321802738  0.2499999819528492  1.0000
  V   V2        1.0  0.7500000085867301  0.7500000008763824  0.7499999584076688  1.0000
  Ru  Ru1       1.0  0.9999999885890708  0.9999999837856883  0.9999999873347604  1.0000
  I   I1        1.0  0.25091874362904976  0.25091876331638446  0.7490812552701605  1.0000
  I   I2        1.0  0.749081267830531  0.7490812194759052  0.25091878759833325  1.0000
  I   I3        1.0  0.7490812464335423  0.25091875043195316  0.25091877660920997  1.0000
  I   I4        1.0  0.25091875837076133  0.7490812339817676  0.7490812528894905  1.0000
  I   I5        1.0  0.2509187405299814  0.7490812495238506  0.25091876648761086  1.0000
  I   I6        1.0  0.7490812442925814  0.2509187673184937  0.7490812342814672  1.0000
