data_image0
_chemical_formula_structural       V2RuCl6
_chemical_formula_sum              "V2 Ru1 Cl6"
_cell_length_a       6.6307097352434745
_cell_length_b       6.630709526844548
_cell_length_c       6.630709722440853
_cell_angle_alpha    59.99999999383541
_cell_angle_beta     59.99999963948277
_cell_angle_gamma    59.999999383704306

_space_group_name_H-M_alt    "P 1"
_space_group_IT_number       1

loop_
  _space_group_symop_operation_xyz
  'x, y, z'

loop_
  _atom_site_type_symbol
  _atom_site_label
  _atom_site_symmetry_multiplicity
  _atom_site_fract_x
  _atom_site_fract_y
  _atom_site_fract_z
  _atom_site_occupancy
  V   V1        1.0  0.2499999396969876  0.25000006540598213  0.25000006616068055  1.0000
  V   V2        1.0  0.7499999568099878  0.749999945015108  0.7499999822516589  1.0000
  Ru  Ru1       1.0  1.1363137911373209e-08  1.2929557299622498e-08  0.9999999576909687  1.0000
  Cl  Cl1       1.0  0.25123073058721435  0.2512307919693937  0.7487692529620452  1.0000
  Cl  Cl2       1.0  0.7487692706176349  0.7487692073692185  0.25123076372393727  1.0000
  Cl  Cl3       1.0  0.7487692575399991  0.2512307295416526  0.25123078186549  1.0000
  Cl  Cl4       1.0  0.2512307685732384  0.7487692420907649  0.7487692467763347  1.0000
  Cl  Cl5       1.0  0.2512307893773378  0.7487692487534621  0.25123073594438133  1.0000
  Cl  Cl6       1.0  0.7487692848624964  0.251230756126389  0.7487692293884157  1.0000
