data_image0
_chemical_formula_structural       V2RuF6
_chemical_formula_sum              "V2 Ru1 F6"
_cell_length_a       5.29161570179821
_cell_length_b       5.2916162876095925
_cell_length_c       5.2916161117060465
_cell_angle_alpha    59.999999771026395
_cell_angle_beta     59.99999764271724
_cell_angle_gamma    60.00000027544683

_space_group_name_H-M_alt    "P 1"
_space_group_IT_number       1

loop_
  _space_group_symop_operation_xyz
  'x, y, z'

loop_
  _atom_site_type_symbol
  _atom_site_label
  _atom_site_symmetry_multiplicity
  _atom_site_fract_x
  _atom_site_fract_y
  _atom_site_fract_z
  _atom_site_occupancy
  V   V1        1.0  0.24999973510342485  0.25000050925409784  0.25000036215630284  1.0000
  V   V2        1.0  0.7499996313256774  0.7500006621391148  0.7500002687825787  1.0000
  Ru  Ru1       1.0  6.617122957537584e-08  0.9999998865894751  0.9999999725955394  1.0000
  F   F1        1.0  0.2600534067227155  0.2600527240996592  0.7399467544190164  1.0000
  F   F2        1.0  0.7399469459250384  0.7399468502882104  0.2600529535550363  1.0000
  F   F3        1.0  0.7399470868494344  0.2600529004135526  0.26005308039204034  1.0000
  F   F4        1.0  0.26005285081489443  0.7399468845938654  0.7399468979545312  1.0000
  F   F5        1.0  0.26005321768468265  0.7399465403897691  0.26005287760952006  1.0000
  F   F6        1.0  0.7399470449888816  0.2600530224255995  0.7399468414524593  1.0000
