data_image0
_chemical_formula_structural       V2RuBr6
_chemical_formula_sum              "V2 Ru1 Br6"
_cell_length_a       7.011537391114338
_cell_length_b       7.011537331252471
_cell_length_c       7.011537247245988
_cell_angle_alpha    59.99999954615801
_cell_angle_beta     59.99999910085057
_cell_angle_gamma    59.99999981137902

_space_group_name_H-M_alt    "P 1"
_space_group_IT_number       1

loop_
  _space_group_symop_operation_xyz
  'x, y, z'

loop_
  _atom_site_type_symbol
  _atom_site_label
  _atom_site_symmetry_multiplicity
  _atom_site_fract_x
  _atom_site_fract_y
  _atom_site_fract_z
  _atom_site_occupancy
  V   V1        1.0  0.2500000831289364  0.24999998529379533  0.24999990648796902  1.0000
  V   V2        1.0  0.7499999519847467  0.7500001218232571  0.7499997894726674  1.0000
  Ru  Ru1       1.0  0.9999999897363976  0.9999999912662171  3.9449328867371165e-08  1.0000
  Br  Br1       1.0  0.24946489544301498  0.24946489253307516  0.75053513748252  1.0000
  Br  Br2       1.0  0.7505351215410272  0.750535071349939  0.2494649743218365  1.0000
  Br  Br3       1.0  0.7505350672903168  0.24946487611044632  0.24946498879329881  1.0000
  Br  Br4       1.0  0.24946493788316484  0.7505350737985157  0.7505350916905208  1.0000
  Br  Br5       1.0  0.24946492198052483  0.7505350861206366  0.24946494065802335  1.0000
  Br  Br6       1.0  0.750535038993211  0.24946490745723882  0.750535131533888  1.0000
