data_image0
_chemical_formula_structural       V2SbBr6
_chemical_formula_sum              "V2 Sb1 Br6"
_cell_length_a       7.117981603731011
_cell_length_b       7.117981765868743
_cell_length_c       7.11798172622108
_cell_angle_alpha    60.000000423153786
_cell_angle_beta     60.000000367506246
_cell_angle_gamma    60.000001118655284

_space_group_name_H-M_alt    "P 1"
_space_group_IT_number       1

loop_
  _space_group_symop_operation_xyz
  'x, y, z'

loop_
  _atom_site_type_symbol
  _atom_site_label
  _atom_site_symmetry_multiplicity
  _atom_site_fract_x
  _atom_site_fract_y
  _atom_site_fract_z
  _atom_site_occupancy
  V   V1        1.0  0.24999985381216364  0.2499999963119174  0.25000009217603747  1.0000
  V   V2        1.0  0.7500000862349823  0.7500000594817904  0.7499999760460664  1.0000
  Sb  Sb1       1.0  1.2994725315164034e-08  0.999999970749205  0.9999999940791087  1.0000
  Br  Br1       1.0  0.2608895258019593  0.26088943034073814  0.7391105936172987  1.0000
  Br  Br2       1.0  0.7391105488425449  0.7391105428624903  0.26088945141115166  1.0000
  Br  Br3       1.0  0.7391105333522706  0.26088947609840224  0.2608894466547973  1.0000
  Br  Br4       1.0  0.2608893934387009  0.7391105659302256  0.7391105353305574  1.0000
  Br  Br5       1.0  0.2608894324460716  0.7391104888993308  0.26088945306293226  1.0000
  Br  Br6       1.0  0.7391106181601909  0.2608894688181825  0.7391104445452745  1.0000
