data_image0
_chemical_formula_structural       V2SbCl6
_chemical_formula_sum              "V2 Sb1 Cl6"
_cell_length_a       6.812610035698879
_cell_length_b       6.812610013667182
_cell_length_c       6.812610215924141
_cell_angle_alpha    59.999998540285695
_cell_angle_beta     59.999999459614216
_cell_angle_gamma    59.9999987172212

_space_group_name_H-M_alt    "P 1"
_space_group_IT_number       1

loop_
  _space_group_symop_operation_xyz
  'x, y, z'

loop_
  _atom_site_type_symbol
  _atom_site_label
  _atom_site_symmetry_multiplicity
  _atom_site_fract_x
  _atom_site_fract_y
  _atom_site_fract_z
  _atom_site_occupancy
  V   V1        1.0  0.2499997826269466  0.25000006002902647  0.2500000009042639  1.0000
  V   V2        1.0  0.7499998015623697  0.7500001207609425  0.7499999126893261  1.0000
  Sb  Sb1       1.0  2.542418867544839e-08  0.9999999999999997  1.2241630595844856e-08  1.0000
  Cl  Cl1       1.0  0.2579348071582414  0.25793452797589883  0.7420653577063849  1.0000
  Cl  Cl2       1.0  0.7420653476170076  0.742065329216971  0.257934698076566  1.0000
  Cl  Cl3       1.0  0.7420653797821508  0.25793461004305807  0.25793471480795477  1.0000
  Cl  Cl4       1.0  0.2579347463493683  0.7420652974871373  0.7420653961821753  1.0000
  Cl  Cl5       1.0  0.25793467111421087  0.7420653708334952  0.25793463733488226  1.0000
  Cl  Cl6       1.0  0.7420654148496564  0.2579346877086788  0.7420652861251297  1.0000
