data_image0
_chemical_formula_structural       V2SbI6
_chemical_formula_sum              "V2 Sb1 I6"
_cell_length_a       7.8546377304177115
_cell_length_b       7.854637666405701
_cell_length_c       7.854637548717768
_cell_angle_alpha    60.000001061457084
_cell_angle_beta     60.00000082175406
_cell_angle_gamma    59.999999265343604

_space_group_name_H-M_alt    "P 1"
_space_group_IT_number       1

loop_
  _space_group_symop_operation_xyz
  'x, y, z'

loop_
  _atom_site_type_symbol
  _atom_site_label
  _atom_site_symmetry_multiplicity
  _atom_site_fract_x
  _atom_site_fract_y
  _atom_site_fract_z
  _atom_site_occupancy
  V   V1        1.0  0.24999995737842373  0.25000003411087246  0.2500000086956445  1.0000
  V   V2        1.0  0.7500000236893695  0.7500000181323937  0.7499999083832035  1.0000
  Sb  Sb1       1.0  0.9999999999261246  0.9999999781703134  5.805771005152158e-08  1.0000
  I   I1        1.0  0.2643272805634353  0.2643272456670628  0.7356727382912189  1.0000
  I   I2        1.0  0.7356727622786369  0.7356727535612492  0.264327259707892  1.0000
  I   I3        1.0  0.7356727754077498  0.26432720156979783  0.2643272811160096  1.0000
  I   I4        1.0  0.26432727266246825  0.7356727290509265  0.735672737114623  1.0000
  I   I5        1.0  0.26432720754036493  0.7356727604320846  0.2643272772476779  1.0000
  I   I6        1.0  0.7356727277024862  0.26432727933707584  0.7356727262716886  1.0000
