data_image0
_chemical_formula_structural       V2SbF6
_chemical_formula_sum              "V2 Sb1 F6"
_cell_length_a       4.79186730110326
_cell_length_b       4.791867335903752
_cell_length_c       4.7918672913812195
_cell_angle_alpha    60.000000413634325
_cell_angle_beta     60.000000786014276
_cell_angle_gamma    60.000000593423216

_space_group_name_H-M_alt    "P 1"
_space_group_IT_number       1

loop_
  _space_group_symop_operation_xyz
  'x, y, z'

loop_
  _atom_site_type_symbol
  _atom_site_label
  _atom_site_symmetry_multiplicity
  _atom_site_fract_x
  _atom_site_fract_y
  _atom_site_fract_z
  _atom_site_occupancy
  V   V1        1.0  0.250000003523313  0.24999999476861284  0.2499999949649509  1.0000
  V   V2        1.0  0.7499999918518818  0.7499999970852497  0.7500000087328668  1.0000
  Sb  Sb1       1.0  1.4617323697168876e-10  0.9999999923323533  0.9999999912395219  1.0000
  F   F1        1.0  0.2684623319195554  0.2684623378837096  0.7315376643974697  1.0000
  F   F2        1.0  0.7315376511147486  0.7315376693054464  0.26846234406375413  1.0000
  F   F3        1.0  0.7315376639642742  0.2684623363890752  0.26846231444163915  1.0000
  F   F4        1.0  0.26846232685877014  0.731537683579492  0.7315376586930791  1.0000
  F   F5        1.0  0.26846231292623185  0.7315376791677622  0.2684623289485564  1.0000
  F   F6        1.0  0.7315376960552559  0.26846231524198233  0.7315376833631271  1.0000
