data_image0
_chemical_formula_structural       V2SBr6
_chemical_formula_sum              "V2 S1 Br6"
_cell_length_a       6.885491803987397
_cell_length_b       6.8854919284915725
_cell_length_c       6.885492157208249
_cell_angle_alpha    59.999999697609205
_cell_angle_beta     59.999999239378766
_cell_angle_gamma    59.99999938963891

_space_group_name_H-M_alt    "P 1"
_space_group_IT_number       1

loop_
  _space_group_symop_operation_xyz
  'x, y, z'

loop_
  _atom_site_type_symbol
  _atom_site_label
  _atom_site_symmetry_multiplicity
  _atom_site_fract_x
  _atom_site_fract_y
  _atom_site_fract_z
  _atom_site_occupancy
  V   V1        1.0  0.24999996471365785  0.2499999954847762  0.25000003063900716  1.0000
  V   V2        1.0  0.7499999662347435  0.7500000166927816  0.7500000610835168  1.0000
  S   S1        1.0  2.752672127908254e-08  0.9999999928850695  0.9999999810801308  1.0000
  Br  Br1       1.0  0.25781605831669535  0.2578160994917596  0.7421839379483949  1.0000
  Br  Br2       1.0  0.7421839010390662  0.7421839180219953  0.2578160555719263  1.0000
  Br  Br3       1.0  0.7421839744410741  0.257816066235034  0.25781606567476645  1.0000
  Br  Br4       1.0  0.2578160906502884  0.7421839761809761  0.7421838654312853  1.0000
  Br  Br5       1.0  0.25781606696171405  0.7421839379470233  0.2578160874032441  1.0000
  Br  Br6       1.0  0.7421839581373395  0.2578160030812308  0.7421839187498264  1.0000
