data_image0
_chemical_formula_structural       V2SCl6
_chemical_formula_sum              "V2 S1 Cl6"
_cell_length_a       6.6430525633629305
_cell_length_b       6.643052597264129
_cell_length_c       6.643052390669461
_cell_angle_alpha    60.00000134460495
_cell_angle_beta     60.0000005689238
_cell_angle_gamma    60.0000002765213

_space_group_name_H-M_alt    "P 1"
_space_group_IT_number       1

loop_
  _space_group_symop_operation_xyz
  'x, y, z'

loop_
  _atom_site_type_symbol
  _atom_site_label
  _atom_site_symmetry_multiplicity
  _atom_site_fract_x
  _atom_site_fract_y
  _atom_site_fract_z
  _atom_site_occupancy
  V   V1        1.0  0.25000002604508537  0.24999971296068144  0.25000007103301614  1.0000
  V   V2        1.0  0.749999864970914  0.7499999869599822  0.7500000552074555  1.0000
  S   S1        1.0  1.7201169192771033e-09  3.134201079265935e-08  1.0564913999735462e-08  1.0000
  Cl  Cl1       1.0  0.25209866323088576  0.252098667618375  0.7479013194685725  1.0000
  Cl  Cl2       1.0  0.7479012711286586  0.7479014028754734  0.25209861336152384  1.0000
  Cl  Cl3       1.0  0.7479013954098794  0.2520986466334541  0.25209864827194217  1.0000
  Cl  Cl4       1.0  0.25209873951237494  0.7479013279907141  0.7479013676915278  1.0000
  Cl  Cl5       1.0  0.25209867782668915  0.7479015174096151  0.2520985950240529  1.0000
  Cl  Cl6       1.0  0.7479013619639636  0.2520987061069913  0.7479013290056785  1.0000
