data_image0
_chemical_formula_structural       V2SeBr6
_chemical_formula_sum              "V2 Se1 Br6"
_cell_length_a       7.0066194141591
_cell_length_b       7.006619307642041
_cell_length_c       7.006619503002367
_cell_angle_alpha    59.99999931348002
_cell_angle_beta     60.00000011821921
_cell_angle_gamma    60.00000001148768

_space_group_name_H-M_alt    "P 1"
_space_group_IT_number       1

loop_
  _space_group_symop_operation_xyz
  'x, y, z'

loop_
  _atom_site_type_symbol
  _atom_site_label
  _atom_site_symmetry_multiplicity
  _atom_site_fract_x
  _atom_site_fract_y
  _atom_site_fract_z
  _atom_site_occupancy
  V   V1        1.0  0.24999990794003574  0.24999992048393505  0.2500000527818412  1.0000
  V   V2        1.0  0.7500000342406244  0.7500000760886797  0.7499998857790395  1.0000
  Se  Se1       1.0  0.9999999816719111  1.0487895655252795e-08  4.95911937445874e-08  1.0000
  Br  Br1       1.0  0.2566325665875718  0.2566325290471086  0.7433674618176597  1.0000
  Br  Br2       1.0  0.74336745606301  0.7433674535416457  0.2566325519690466  1.0000
  Br  Br3       1.0  0.7433674251485  0.2566325758266339  0.25663260559261186  1.0000
  Br  Br4       1.0  0.2566326053422755  0.7433674277379119  0.7433674251849811  1.0000
  Br  Br5       1.0  0.256632524652863  0.7433674641332689  0.25663256776010607  1.0000
  Br  Br6       1.0  0.7433674953671687  0.25663254117925927  0.7433674117172179  1.0000
