data_image0
_chemical_formula_structural       V2SeCl6
_chemical_formula_sum              "V2 Se1 Cl6"
_cell_length_a       6.687165945274623
_cell_length_b       6.687165528149591
_cell_length_c       6.68716563922752
_cell_angle_alpha    60.00000010017494
_cell_angle_beta     59.999999672082964
_cell_angle_gamma    59.999998925354156

_space_group_name_H-M_alt    "P 1"
_space_group_IT_number       1

loop_
  _space_group_symop_operation_xyz
  'x, y, z'

loop_
  _atom_site_type_symbol
  _atom_site_label
  _atom_site_symmetry_multiplicity
  _atom_site_fract_x
  _atom_site_fract_y
  _atom_site_fract_z
  _atom_site_occupancy
  V   V1        1.0  0.25000015453919444  0.2499998900708554  0.25000000092203956  1.0000
  V   V2        1.0  0.7500000218798811  0.7500000163633823  0.7499998666251397  1.0000
  Se  Se1       1.0  0.9999999799763728  2.380931546716736e-08  0.999999990630147  1.0000
  Cl  Cl1       1.0  0.253844246120032  0.2538442115931651  0.7461558018705993  1.0000
  Cl  Cl2       1.0  0.7461557588787594  0.7461558102246814  0.2538442641707338  1.0000
  Cl  Cl3       1.0  0.7461557435988971  0.25384419869551433  0.25384425088126555  1.0000
  Cl  Cl4       1.0  0.2538441984172266  0.7461558359427315  0.7461557355630714  1.0000
  Cl  Cl5       1.0  0.2538441800986765  0.7461557318218681  0.25384426935659316  1.0000
  Cl  Cl6       1.0  0.7461557190631475  0.25384428633300626  0.746155815545066  1.0000
