data_image0
_chemical_formula_structural       V2SeF6
_chemical_formula_sum              "V2 Se1 F6"
_cell_length_a       4.767754452872029
_cell_length_b       4.517814566447939
_cell_length_c       4.711043064550192
_cell_angle_alpha    62.16870027551505
_cell_angle_beta     56.92694329556513
_cell_angle_gamma    59.14021952629138

_space_group_name_H-M_alt    "P 1"
_space_group_IT_number       1

loop_
  _space_group_symop_operation_xyz
  'x, y, z'

loop_
  _atom_site_type_symbol
  _atom_site_label
  _atom_site_symmetry_multiplicity
  _atom_site_fract_x
  _atom_site_fract_y
  _atom_site_fract_z
  _atom_site_occupancy
  V   V1        1.0  0.2642944467451516  0.26241568814449945  0.22589961683152837  1.0000
  V   V2        1.0  0.7358027763366426  0.7339235971439434  0.7543847015779358  1.0000
  Se  Se1       1.0  0.056363233790623045  0.9418561862675408  0.07325894947551348  1.0000
  F   F1        1.0  0.30973107897070334  0.29571431719658015  0.7127680118587463  1.0000
  F   F2        1.0  0.7025142739634695  0.6884924580306335  0.3199883069991863  1.0000
  F   F3        1.0  0.7143333034983027  0.2838975868461287  0.2584981676822485  1.0000
  F   F4        1.0  0.24080880655187162  0.7574147903473406  0.7134079716271162  1.0000
  F   F5        1.0  0.30490557128896384  0.6933147033034284  0.31883403458955384  1.0000
  F   F6        1.0  0.6735568654862966  0.3246545810433622  0.6290964988746081  1.0000
