data_image0
_chemical_formula_structural       V2SeI6
_chemical_formula_sum              "V2 Se1 I6"
_cell_length_a       7.7313005021575725
_cell_length_b       7.73130051775884
_cell_length_c       7.731300564296616
_cell_angle_alpha    59.9999999790058
_cell_angle_beta     59.99999979941758
_cell_angle_gamma    59.999999243583545

_space_group_name_H-M_alt    "P 1"
_space_group_IT_number       1

loop_
  _space_group_symop_operation_xyz
  'x, y, z'

loop_
  _atom_site_type_symbol
  _atom_site_label
  _atom_site_symmetry_multiplicity
  _atom_site_fract_x
  _atom_site_fract_y
  _atom_site_fract_z
  _atom_site_occupancy
  V   V1        1.0  0.2499999803833423  0.2500000279693871  0.25000001023354596  1.0000
  V   V2        1.0  0.7500000359083157  0.7499999967805577  0.7499999984295396  1.0000
  Se  Se1       1.0  1.8434979949584873e-08  2.5346211557831913e-08  0.9999999651749699  1.0000
  I   I1        1.0  0.2652154327092354  0.2652154594332265  0.7347845564478078  1.0000
  I   I2        1.0  0.734784563850644  0.7347845035353273  0.2652154696898805  1.0000
  I   I3        1.0  0.7347845380386901  0.2652154376211822  0.2652154421436684  1.0000
  I   I4        1.0  0.2652154425141541  0.7347845554459981  0.7347845653072332  1.0000
  I   I5        1.0  0.2652154617330323  0.7347845371881364  0.26521543479377735  1.0000
  I   I6        1.0  0.7347845363048425  0.26521545271076724  0.7347845680856343  1.0000
