data_image0
_chemical_formula_structural       V2SF6
_chemical_formula_sum              "V2 S1 F6"
_cell_length_a       6.403569894236502
_cell_length_b       5.9811912431625816
_cell_length_c       5.384361027400666
_cell_angle_alpha    57.76354905920916
_cell_angle_beta     61.77373015509562
_cell_angle_gamma    74.57614237031484

_space_group_name_H-M_alt    "P 1"
_space_group_IT_number       1

loop_
  _space_group_symop_operation_xyz
  'x, y, z'

loop_
  _atom_site_type_symbol
  _atom_site_label
  _atom_site_symmetry_multiplicity
  _atom_site_fract_x
  _atom_site_fract_y
  _atom_site_fract_z
  _atom_site_occupancy
  V   V1        1.0  0.14269052597241197  0.3442097737697037  0.07725967062451589  1.0000
  V   V2        1.0  0.14393141094877038  0.6745259405485345  0.3828659571619824  1.0000
  S   S1        1.0  0.8106707208370074  0.05053917913406438  0.30954406725105654  1.0000
  F   F1        1.0  0.34192227619663124  0.40748147464702833  0.6322279376879751  1.0000
  F   F2        1.0  0.9683056839518673  0.39440111429880714  0.4607804699841414  1.0000
  F   F3        1.0  0.29849471520439863  0.999425441983203  0.2358135835283302  1.0000
  F   F4        1.0  0.9610394504262798  0.6116863781766111  0.8391241602066123  1.0000
  F   F5        1.0  0.9800705195267494  0.9288973850809017  0.04204217849972329  1.0000
  F   F6        1.0  0.3533970605037953  0.5886564282391856  0.020108483580307146  1.0000
