data_image0
_chemical_formula_structural       V2SiI6
_chemical_formula_sum              "V2 Si1 I6"
_cell_length_a       7.58737011713134
_cell_length_b       7.5873701265408675
_cell_length_c       7.587370038090053
_cell_angle_alpha    60.00000065146179
_cell_angle_beta     60.00000121756033
_cell_angle_gamma    59.9999999059692

_space_group_name_H-M_alt    "P 1"
_space_group_IT_number       1

loop_
  _space_group_symop_operation_xyz
  'x, y, z'

loop_
  _atom_site_type_symbol
  _atom_site_label
  _atom_site_symmetry_multiplicity
  _atom_site_fract_x
  _atom_site_fract_y
  _atom_site_fract_z
  _atom_site_occupancy
  V   V1        1.0  0.2500000183783927  0.250000004947011  0.2499999721630332  1.0000
  V   V2        1.0  0.7500000022389305  0.7499999954707663  0.7499999882078092  1.0000
  Si  Si1       1.0  1.4680655669562005e-08  1.6141888038945086e-09  0.9999999681289425  1.0000
  I   I1        1.0  0.2517398483364962  0.25173985507373353  0.7482601955244851  1.0000
  I   I2        1.0  0.7482601295760979  0.748260150186611  0.25173987735399994  1.0000
  I   I3        1.0  0.7482601531431864  0.25173981601200185  0.2517398557964402  1.0000
  I   I4        1.0  0.2517398388355221  0.7482601698780759  0.7482601314294784  1.0000
  I   I5        1.0  0.2517398311158551  0.7482601571061491  0.25173985057473347  1.0000
  I   I6        1.0  0.7482601599555223  0.2517398497683841  0.7482601542901972  1.0000
