data_image0
_chemical_formula_structural       V2SiCl6
_chemical_formula_sum              "V2 Si1 Cl6"
_cell_length_a       6.610024998890072
_cell_length_b       6.610024898673825
_cell_length_c       6.610024794760019
_cell_angle_alpha    60.0000002707006
_cell_angle_beta     59.999999660225704
_cell_angle_gamma    59.99999991420705

_space_group_name_H-M_alt    "P 1"
_space_group_IT_number       1

loop_
  _space_group_symop_operation_xyz
  'x, y, z'

loop_
  _atom_site_type_symbol
  _atom_site_label
  _atom_site_symmetry_multiplicity
  _atom_site_fract_x
  _atom_site_fract_y
  _atom_site_fract_z
  _atom_site_occupancy
  V   V1        1.0  0.25000002635590723  0.24999997453601105  0.2499999681630243  1.0000
  V   V2        1.0  0.7500000165489007  0.7499999958695612  0.7500000599802044  1.0000
  Si  Si1       1.0  2.2709607224459006e-08  0.0  0.9999999780552208  1.0000
  Cl  Cl1       1.0  0.2426723417273227  0.24267236956095686  0.7573276800159667  1.0000
  Cl  Cl2       1.0  0.7573275915107408  0.7573276416075285  0.24267235988637426  1.0000
  Cl  Cl3       1.0  0.7573276342915547  0.24267236576205278  0.24267239045592767  1.0000
  Cl  Cl4       1.0  0.2426723467120545  0.7573276750521877  0.7573276062022014  1.0000
  Cl  Cl5       1.0  0.24267241845345858  0.7573275700992566  0.2426722991703309  1.0000
  Cl  Cl6       1.0  0.7573275978240904  0.24267242254063207  0.7573276343467371  1.0000
