data_image0
_chemical_formula_structural       V2SI6
_chemical_formula_sum              "V2 S1 I6"
_cell_length_a       7.60773666119212
_cell_length_b       7.60773657547942
_cell_length_c       7.6077369702445035
_cell_angle_alpha    59.99999863644904
_cell_angle_beta     60.000000274792846
_cell_angle_gamma    59.99999754508177

_space_group_name_H-M_alt    "P 1"
_space_group_IT_number       1

loop_
  _space_group_symop_operation_xyz
  'x, y, z'

loop_
  _atom_site_type_symbol
  _atom_site_label
  _atom_site_symmetry_multiplicity
  _atom_site_fract_x
  _atom_site_fract_y
  _atom_site_fract_z
  _atom_site_occupancy
  V   V1        1.0  0.24999995648583687  0.2500000330634182  0.2500000161637997  1.0000
  V   V2        1.0  0.7500000076086982  0.7500000444547521  0.749999975236726  1.0000
  S   S1        1.0  7.925674253458305e-09  3.541708807990802e-08  9.87545101153277e-09  1.0000
  I   I1        1.0  0.26556955077139593  0.265569502861651  0.7344304771083396  1.0000
  I   I2        1.0  0.7344304684873969  0.7344304410375034  0.26556952197273354  1.0000
  I   I3        1.0  0.7344305016484453  0.26556947697151223  0.2655694509213361  1.0000
  I   I4        1.0  0.26556953288039475  0.734430462098039  0.7344305468828694  1.0000
  I   I5        1.0  0.26556946593734365  0.7344305307041805  0.265569470287112  1.0000
  I   I6        1.0  0.7344305121251757  0.2655694775896808  0.7344305237670009  1.0000
