data_image0
_chemical_formula_structural       V2SiF6
_chemical_formula_sum              "V2 Si1 F6"
_cell_length_a       6.238197769138505
_cell_length_b       5.571957192728246
_cell_length_c       5.465521544916498
_cell_angle_alpha    59.5023189280488
_cell_angle_beta     73.56021725240979
_cell_angle_gamma    56.00575519646391

_space_group_name_H-M_alt    "P 1"
_space_group_IT_number       1

loop_
  _space_group_symop_operation_xyz
  'x, y, z'

loop_
  _atom_site_type_symbol
  _atom_site_label
  _atom_site_symmetry_multiplicity
  _atom_site_fract_x
  _atom_site_fract_y
  _atom_site_fract_z
  _atom_site_occupancy
  V   V1        1.0  0.05573342731914035  0.33770341638259294  0.3256143531509423  1.0000
  V   V2        1.0  0.5555371129460749  0.6670742753443444  0.6647796609631291  1.0000
  Si  Si1       1.0  0.05571346792378689  0.9944137155295858  0.010628089454616251  1.0000
  F   F1        1.0  0.2594709741539765  0.10278843406246882  0.7415833677768451  1.0000
  F   F2        1.0  0.8676088864491103  0.8520809958162991  0.26285323315935993  1.0000
  F   F3        1.0  0.8660185369584358  0.38171553686812865  0.9951983395904189  1.0000
  F   F4        1.0  0.245387383188525  0.6226890065961833  0.9949905046419306  1.0000
  F   F5        1.0  0.2435373130663695  0.8852478268590231  0.26388359787477955  1.0000
  F   F6        1.0  0.8521526777910455  0.1555797020248364  0.7402943366008615  1.0000
