data_image0
_chemical_formula_structural       V2SiBr6
_chemical_formula_sum              "V2 Si1 Br6"
_cell_length_a       6.922652463329774
_cell_length_b       6.922652716658859
_cell_length_c       6.922652573228974
_cell_angle_alpha    59.999998740147134
_cell_angle_beta     59.99999959092812
_cell_angle_gamma    59.99999983888069

_space_group_name_H-M_alt    "P 1"
_space_group_IT_number       1

loop_
  _space_group_symop_operation_xyz
  'x, y, z'

loop_
  _atom_site_type_symbol
  _atom_site_label
  _atom_site_symmetry_multiplicity
  _atom_site_fract_x
  _atom_site_fract_y
  _atom_site_fract_z
  _atom_site_occupancy
  V   V1        1.0  0.25000009951637175  0.25000002126099985  0.2499998687513633  1.0000
  V   V2        1.0  0.7499999879826234  0.7499999346325357  0.7500001222418318  1.0000
  Si  Si1       1.0  0.9999999941027187  1.769184396712667e-08  0.9999999724347236  1.0000
  Br  Br1       1.0  0.2479327267224174  0.24793271103066328  0.752067257006191  1.0000
  Br  Br2       1.0  0.7520672479073786  0.7520673032459572  0.24793269044794397  1.0000
  Br  Br3       1.0  0.7520672855127742  0.247932703925217  0.2479327224822179  1.0000
  Br  Br4       1.0  0.24793269169565707  0.7520672625834243  0.7520673371276347  1.0000
  Br  Br5       1.0  0.24793271615384865  0.7520673075360311  0.24793269172456658  1.0000
  Br  Br6       1.0  0.7520672494276637  0.24793274389345876  0.75206733123832  1.0000
