data_image0
_chemical_formula_structural       V2SnBr6
_chemical_formula_sum              "V2 Sn1 Br6"
_cell_length_a       7.0770469127244535
_cell_length_b       7.077047076711738
_cell_length_c       7.077046921937789
_cell_angle_alpha    59.99999989637484
_cell_angle_beta     60.00000050740488
_cell_angle_gamma    59.99999855601535

_space_group_name_H-M_alt    "P 1"
_space_group_IT_number       1

loop_
  _space_group_symop_operation_xyz
  'x, y, z'

loop_
  _atom_site_type_symbol
  _atom_site_label
  _atom_site_symmetry_multiplicity
  _atom_site_fract_x
  _atom_site_fract_y
  _atom_site_fract_z
  _atom_site_occupancy
  V   V1        1.0  0.249999944572748  0.2499999791863925  0.25000001061355875  1.0000
  V   V2        1.0  0.7500000589119576  0.7500000500473551  0.7499999718021746  1.0000
  Sn  Sn1       1.0  0.9999999970167132  1.384469982966334e-08  0.9999999733740121  1.0000
  Br  Br1       1.0  0.2596225584700521  0.2596224495738614  0.7403774979875448  1.0000
  Br  Br2       1.0  0.740377501397261  0.740377503514038  0.2596224731145284  1.0000
  Br  Br3       1.0  0.7403775346707052  0.25962246641895015  0.2596224930759176  1.0000
  Br  Br4       1.0  0.2596224361167195  0.7403775091665875  0.7403775409906739  1.0000
  Br  Br5       1.0  0.2596224746129899  0.7403775129435288  0.2596225160327288  1.0000
  Br  Br6       1.0  0.740377497294197  0.2596225180208063  0.740377522284014  1.0000
