data_image0
_chemical_formula_structural       V2SnF6
_chemical_formula_sum              "V2 Sn1 F6"
_cell_length_a       6.006712208836467
_cell_length_b       6.006715683484908
_cell_length_c       6.006716946317519
_cell_angle_alpha    60.00001299002345
_cell_angle_beta     59.99999714004968
_cell_angle_gamma    59.99999655849308

_space_group_name_H-M_alt    "P 1"
_space_group_IT_number       1

loop_
  _space_group_symop_operation_xyz
  'x, y, z'

loop_
  _atom_site_type_symbol
  _atom_site_label
  _atom_site_symmetry_multiplicity
  _atom_site_fract_x
  _atom_site_fract_y
  _atom_site_fract_z
  _atom_site_occupancy
  V   V1        1.0  0.24999768891086768  0.25000233352735285  0.2500017163179764  1.0000
  V   V2        1.0  0.7500056346489774  0.7500002658968261  0.749994837284914  1.0000
  Sn  Sn1       1.0  8.357399370884294e-08  0.9999999857273036  2.150698040284616e-07  1.0000
  F   F1        1.0  0.241629445090009  0.24163311404761317  0.758367621206006  1.0000
  F   F2        1.0  0.7583703805760273  0.7583667552113009  0.24163240768763217  1.0000
  F   F3        1.0  0.758367832531573  0.24163034474905828  0.2416325428007863  1.0000
  F   F4        1.0  0.24163011481846094  0.7583686599916678  0.7583689507384513  1.0000
  F   F5        1.0  0.24162910482520236  0.7583683397657062  0.24163396678367408  1.0000
  F   F6        1.0  0.7583698091642878  0.24163021028703757  0.7583678334833198  1.0000
