data_image0
_chemical_formula_structural       V2SnCl6
_chemical_formula_sum              "V2 Sn1 Cl6"
_cell_length_a       6.7821244942324
_cell_length_b       6.782124210865016
_cell_length_c       6.7821244398283005
_cell_angle_alpha    60.0000008303811
_cell_angle_beta     60.000001141289516
_cell_angle_gamma    60.00000048347552

_space_group_name_H-M_alt    "P 1"
_space_group_IT_number       1

loop_
  _space_group_symop_operation_xyz
  'x, y, z'

loop_
  _atom_site_type_symbol
  _atom_site_label
  _atom_site_symmetry_multiplicity
  _atom_site_fract_x
  _atom_site_fract_y
  _atom_site_fract_z
  _atom_site_occupancy
  V   V1        1.0  0.2500000821831778  0.24999990188774507  0.2500000486981951  1.0000
  V   V2        1.0  0.7500000233864853  0.7500000993369089  0.7499997364571428  1.0000
  Sn  Sn1       1.0  0.9999999835763014  0.9999999981941576  2.828280555545533e-08  1.0000
  Cl  Cl1       1.0  0.25630476903443183  0.25630478673879625  0.7436952128624326  1.0000
  Cl  Cl2       1.0  0.7436952232541852  0.7436952325442872  0.25630483959938566  1.0000
  Cl  Cl3       1.0  0.7436952141003398  0.2563046968245078  0.25630485499594857  1.0000
  Cl  Cl4       1.0  0.2563048113809487  0.74369524841903  0.7436952075680561  1.0000
  Cl  Cl5       1.0  0.25630473100089163  0.7436952519148262  0.256304830318597  1.0000
  Cl  Cl6       1.0  0.743695169349236  0.2563047673682563  0.7436952592656801  1.0000
