data_image0
_chemical_formula_structural       V2SnI6
_chemical_formula_sum              "V2 Sn1 I6"
_cell_length_a       7.779434668346987
_cell_length_b       7.779434716064579
_cell_length_c       7.779434617296678
_cell_angle_alpha    60.000000081620804
_cell_angle_beta     60.00000015474377
_cell_angle_gamma    60.00000049670449

_space_group_name_H-M_alt    "P 1"
_space_group_IT_number       1

loop_
  _space_group_symop_operation_xyz
  'x, y, z'

loop_
  _atom_site_type_symbol
  _atom_site_label
  _atom_site_symmetry_multiplicity
  _atom_site_fract_x
  _atom_site_fract_y
  _atom_site_fract_z
  _atom_site_occupancy
  V   V1        1.0  0.24999998017756112  0.2500000060341997  0.25000002687785644  1.0000
  V   V2        1.0  0.7500000212250441  0.7499999897645411  0.750000009466002  1.0000
  Sn  Sn1       1.0  0.9999999768505884  2.0466375452325947e-08  1.805224401221118e-08  1.0000
  I   I1        1.0  0.26237189745252976  0.2623718952685614  0.7376280903380222  1.0000
  I   I2        1.0  0.7376280863931557  0.7376281131248721  0.26237188935668837  1.0000
  I   I3        1.0  0.73762809998012  0.26237191206374605  0.2623718826614525  1.0000
  I   I4        1.0  0.26237193260820746  0.7376280569712731  0.737628098768347  1.0000
  I   I5        1.0  0.26237189782190806  0.7376281043380504  0.2623719123207932  1.0000
  I   I6        1.0  0.7376281048849204  0.2623719009067101  0.7376280762284084  1.0000
