data_image0
_chemical_formula_structural       V2TaF6
_chemical_formula_sum              "V2 Ta1 F6"
_cell_length_a       6.267064782338367
_cell_length_b       5.191241544207358
_cell_length_c       6.272407842319902
_cell_angle_alpha    62.03645601318682
_cell_angle_beta     65.79204845256804
_cell_angle_gamma    53.67209747294713

_space_group_name_H-M_alt    "P 1"
_space_group_IT_number       1

loop_
  _space_group_symop_operation_xyz
  'x, y, z'

loop_
  _atom_site_type_symbol
  _atom_site_label
  _atom_site_symmetry_multiplicity
  _atom_site_fract_x
  _atom_site_fract_y
  _atom_site_fract_z
  _atom_site_occupancy
  V   V1        1.0  0.11433129065300458  0.5889290407842587  0.5356755566420861  1.0000
  V   V2        1.0  0.5497122889877155  0.9570712263220176  0.9422316439683596  1.0000
  Ta  Ta1       1.0  0.9690112409714627  0.9349392015074691  0.9622351407491385  1.0000
  F   F1        1.0  0.27923234802619157  0.04624981754417034  0.7287689486326371  1.0000
  F   F2        1.0  0.9733022229171711  0.5830564687549961  0.27868639965104713  1.0000
  F   F3        1.0  0.8067393886912434  0.4295684397367941  0.8863383205646648  1.0000
  F   F4        1.0  0.2431125815645476  0.5205758864782903  0.8578983745890195  1.0000
  F   F5        1.0  0.1945642382361156  0.8975935536904754  0.16456763078334596  1.0000
  F   F6        1.0  0.870027862570166  0.04193727027231965  0.643570901327526  1.0000
