data_image0
_chemical_formula_structural       V2TaF6
_chemical_formula_sum              "V2 Ta1 F6"
_cell_length_a       5.938253104506503
_cell_length_b       5.969299099347314
_cell_length_c       5.967740569615303
_cell_angle_alpha    63.61148032231554
_cell_angle_beta     60.480528237687295
_cell_angle_gamma    60.45390028371733

_space_group_name_H-M_alt    "P 1"
_space_group_IT_number       1

loop_
  _space_group_symop_operation_xyz
  'x, y, z'

loop_
  _atom_site_type_symbol
  _atom_site_label
  _atom_site_symmetry_multiplicity
  _atom_site_fract_x
  _atom_site_fract_y
  _atom_site_fract_z
  _atom_site_occupancy
  V   V1        1.0  0.6232897691155954  0.4446646704005012  0.44479391113067995  1.0000
  V   V2        1.0  0.5865885032023014  0.9450215043210387  0.9444484868649855  1.0000
  Ta  Ta1       1.0  0.1504161746910513  0.9449218401422679  0.9451283789941266  1.0000
  F   F1        1.0  0.33778290159025826  0.2105047299185491  0.6749742297613776  1.0000
  F   F2        1.0  0.8713740291423492  0.7349538792762953  0.15489307754911846  1.0000
  F   F3        1.0  0.8767653715744822  0.1788119359896205  0.17818279720166375  1.0000
  F   F4        1.0  0.34471007282473176  0.7105929577514262  0.7114228297615819  1.0000
  F   F5        1.0  0.3370037770878222  0.6758363282284401  0.21156630367583595  1.0000
  F   F6        1.0  0.8720695210407619  0.15468401260377393  0.7345997938875111  1.0000
