data_image0
_chemical_formula_structural       V2TaBr6
_chemical_formula_sum              "V2 Ta1 Br6"
_cell_length_a       7.172456689337007
_cell_length_b       7.172457232568543
_cell_length_c       7.172456604044106
_cell_angle_alpha    60.00000014299888
_cell_angle_beta     60.000001420493234
_cell_angle_gamma    59.99999990891487

_space_group_name_H-M_alt    "P 1"
_space_group_IT_number       1

loop_
  _space_group_symop_operation_xyz
  'x, y, z'

loop_
  _atom_site_type_symbol
  _atom_site_label
  _atom_site_symmetry_multiplicity
  _atom_site_fract_x
  _atom_site_fract_y
  _atom_site_fract_z
  _atom_site_occupancy
  V   V1        1.0  0.25000000650605775  0.25000004157149275  0.24999991385585907  1.0000
  V   V2        1.0  0.7499999201446919  0.7500000171377735  0.7500000806662652  1.0000
  Ta  Ta1       1.0  0.9999999995284692  0.9999999965848656  3.401044897688045e-08  1.0000
  Br  Br1       1.0  0.24980034855320496  0.24980030019033392  0.7501996731951214  1.0000
  Br  Br2       1.0  0.7501996931991237  0.7501996885086993  0.24980026810843825  1.0000
  Br  Br3       1.0  0.7501996623756474  0.24980033375761526  0.24980036899597088  1.0000
  Br  Br4       1.0  0.24980037466136695  0.7501996207900833  0.7501996461155895  1.0000
  Br  Br5       1.0  0.24980035394780387  0.7501996673934918  0.2498003588165573  1.0000
  Br  Br6       1.0  0.7501996420602168  0.24980032813580724  0.7501996451649188  1.0000
