data_image0
_chemical_formula_structural       V2TaI6
_chemical_formula_sum              "V2 Ta1 I6"
_cell_length_a       7.769782277995098
_cell_length_b       7.769782274047208
_cell_length_c       7.769782261440713
_cell_angle_alpha    59.99999925483805
_cell_angle_beta     59.999999240132226
_cell_angle_gamma    59.99999971021756

_space_group_name_H-M_alt    "P 1"
_space_group_IT_number       1

loop_
  _space_group_symop_operation_xyz
  'x, y, z'

loop_
  _atom_site_type_symbol
  _atom_site_label
  _atom_site_symmetry_multiplicity
  _atom_site_fract_x
  _atom_site_fract_y
  _atom_site_fract_z
  _atom_site_occupancy
  V   V1        1.0  0.25000001541666  0.24999995278863366  0.2499999947079834  1.0000
  V   V2        1.0  0.7499999850450251  0.7500000286054804  0.7499999875233181  1.0000
  Ta  Ta1       1.0  5.6741216862661805e-09  1.418663143362168e-08  2.9967781281148215e-08  1.0000
  I   I1        1.0  0.25144353994196234  0.25144354836829425  0.7485564358320529  1.0000
  I   I2        1.0  0.7485564646020852  0.7485564787382998  0.25144351249256564  1.0000
  I   I3        1.0  0.7485564392801105  0.2514435699824394  0.2514435500590932  1.0000
  I   I4        1.0  0.25144353117280355  0.7485564523952769  0.7485564755922123  1.0000
  I   I5        1.0  0.2514435522007391  0.7485564285402708  0.25144356958640834  1.0000
  I   I6        1.0  0.7485564680315496  0.251443529209457  0.7485564467577182  1.0000
