data_image0
_chemical_formula_structural       V2TaCl6
_chemical_formula_sum              "V2 Ta1 Cl6"
_cell_length_a       6.894105703103872
_cell_length_b       6.894106063133908
_cell_length_c       6.894106458093973
_cell_angle_alpha    59.99999631837328
_cell_angle_beta     59.99999622114753
_cell_angle_gamma    59.99999511223796

_space_group_name_H-M_alt    "P 1"
_space_group_IT_number       1

loop_
  _space_group_symop_operation_xyz
  'x, y, z'

loop_
  _atom_site_type_symbol
  _atom_site_label
  _atom_site_symmetry_multiplicity
  _atom_site_fract_x
  _atom_site_fract_y
  _atom_site_fract_z
  _atom_site_occupancy
  V   V1        1.0  0.2500003247436455  0.25000028696690274  0.24999952380329576  1.0000
  V   V2        1.0  0.7499997179210212  0.750000399008117  0.7499996829006363  1.0000
  Ta  Ta1       1.0  1.6801396622052582e-08  0.9999999093979814  1.1232705576415168e-07  1.0000
  Cl  Cl1       1.0  0.24715056546286715  0.2471503002113953  0.7528496174796917  1.0000
  Cl  Cl2       1.0  0.7528495910439102  0.7528494513192812  0.24715061309291791  1.0000
  Cl  Cl3       1.0  0.7528495206499595  0.24715030769253687  0.24715054284268936  1.0000
  Cl  Cl4       1.0  0.2471504471493025  0.7528495024629838  0.7528496062693109  1.0000
  Cl  Cl5       1.0  0.2471504712786249  0.7528494324630671  0.24715053517526073  1.0000
  Cl  Cl6       1.0  0.7528493890216021  0.2471503936810471  0.7528497365692179  1.0000
