data_image0
_chemical_formula_structural       V2TaBr6
_chemical_formula_sum              "V2 Ta1 Br6"
_cell_length_a       7.172687192756385
_cell_length_b       7.172686906359968
_cell_length_c       7.172687043157751
_cell_angle_alpha    60.00000156556991
_cell_angle_beta     60.00000235555908
_cell_angle_gamma    60.00000176928394

_space_group_name_H-M_alt    "P 1"
_space_group_IT_number       1

loop_
  _space_group_symop_operation_xyz
  'x, y, z'

loop_
  _atom_site_type_symbol
  _atom_site_label
  _atom_site_symmetry_multiplicity
  _atom_site_fract_x
  _atom_site_fract_y
  _atom_site_fract_z
  _atom_site_occupancy
  V   V1        1.0  0.2499999308617299  0.25000001028793745  0.2499998873249713  1.0000
  V   V2        1.0  0.7500000887348497  0.7499999779309544  0.7499999711674108  1.0000
  Ta  Ta1       1.0  0.9999999891216143  0.9999999795098574  6.308630392616111e-08  1.0000
  Br  Br1       1.0  0.24979604179086382  0.24979596849602678  0.7502040128607131  1.0000
  Br  Br2       1.0  0.7502039679512634  0.7502040299679399  0.24979601970856466  1.0000
  Br  Br3       1.0  0.7502040095814447  0.2497960136440508  0.24979600836107835  1.0000
  Br  Br4       1.0  0.24979598539575615  0.7502039711598198  0.7502040216905783  1.0000
  Br  Br5       1.0  0.24979599720617665  0.7502040216122835  0.24979603069646386  1.0000
  Br  Br6       1.0  0.7502039881760231  0.2497960161244572  0.7502039846571475  1.0000
