data_image0
_chemical_formula_structural       V2TaCl6
_chemical_formula_sum              "V2 Ta1 Cl6"
_cell_length_a       6.894106824723456
_cell_length_b       6.894106986851753
_cell_length_c       6.89410647748587
_cell_angle_alpha    59.99999756982909
_cell_angle_beta     60.000002736047634
_cell_angle_gamma    60.00000156496573

_space_group_name_H-M_alt    "P 1"
_space_group_IT_number       1

loop_
  _space_group_symop_operation_xyz
  'x, y, z'

loop_
  _atom_site_type_symbol
  _atom_site_label
  _atom_site_symmetry_multiplicity
  _atom_site_fract_x
  _atom_site_fract_y
  _atom_site_fract_z
  _atom_site_occupancy
  V   V1        1.0  0.24999982007407362  0.25000005282217735  0.2500001421267489  1.0000
  V   V2        1.0  0.7500002322250141  0.74999987244846  0.7500002356064174  1.0000
  Ta  Ta1       1.0  2.7527183728788307e-08  0.999999932492629  0.9999999750241532  1.0000
  Cl  Cl1       1.0  0.24714901418871024  0.2471490108194807  0.7528509531949763  1.0000
  Cl  Cl2       1.0  0.7528508426683944  0.7528510334773432  0.24714894201145013  1.0000
  Cl  Cl3       1.0  0.7528511366721834  0.24714901914141182  0.247148862426985  1.0000
  Cl  Cl4       1.0  0.24714886365239988  0.7528509967312569  0.7528509868618963  1.0000
  Cl  Cl5       1.0  0.2471489803017914  0.7528510675783654  0.24714898215746173  1.0000
  Cl  Cl6       1.0  0.7528510589172516  0.24714898737751417  0.7528509427332125  1.0000
