data_image0
_chemical_formula_structural       V2TaI6
_chemical_formula_sum              "V2 Ta1 I6"
_cell_length_a       7.769784960796669
_cell_length_b       7.769785009525922
_cell_length_c       7.769785045924528
_cell_angle_alpha    59.99999970147872
_cell_angle_beta     59.99999955278756
_cell_angle_gamma    60.000000054061765

_space_group_name_H-M_alt    "P 1"
_space_group_IT_number       1

loop_
  _space_group_symop_operation_xyz
  'x, y, z'

loop_
  _atom_site_type_symbol
  _atom_site_label
  _atom_site_symmetry_multiplicity
  _atom_site_fract_x
  _atom_site_fract_y
  _atom_site_fract_z
  _atom_site_occupancy
  V   V1        1.0  0.25000001073775147  0.25000002166871543  0.24999997526187684  1.0000
  V   V2        1.0  0.7499999775273752  0.749999997225597  0.749999993454029  1.0000
  Ta  Ta1       1.0  0.9999999882756944  1.733921023416886e-08  7.488842803297244e-09  1.0000
  I   I1        1.0  0.2514435835827848  0.2514435796299467  0.7485564403638846  1.0000
  I   I2        1.0  0.74855645924979  0.7485564093148207  0.25144355722825046  1.0000
  I   I3        1.0  0.7485563928504976  0.25144358251236915  0.2514435850357172  1.0000
  I   I4        1.0  0.2514435829253784  0.7485564158901492  0.7485564336336704  1.0000
  I   I5        1.0  0.251443582098101  0.7485563928954989  0.2514435824254712  1.0000
  I   I6        1.0  0.7485564193929406  0.2514435818626418  0.7485564261992641  1.0000
