data_image0
_chemical_formula_structural       V2TeBr6
_chemical_formula_sum              "V2 Te1 Br6"
_cell_length_a       7.212082155453763
_cell_length_b       7.212082194400579
_cell_length_c       7.21208233470213
_cell_angle_alpha    59.999999220227664
_cell_angle_beta     59.99999867187659
_cell_angle_gamma    59.999999685456025

_space_group_name_H-M_alt    "P 1"
_space_group_IT_number       1

loop_
  _space_group_symop_operation_xyz
  'x, y, z'

loop_
  _atom_site_type_symbol
  _atom_site_label
  _atom_site_symmetry_multiplicity
  _atom_site_fract_x
  _atom_site_fract_y
  _atom_site_fract_z
  _atom_site_occupancy
  V   V1        1.0  0.25000002810839034  0.249999967678673  0.24999995550382983  1.0000
  V   V2        1.0  0.7500000344312908  0.7500000287016982  0.749999929844623  1.0000
  Te  Te1       1.0  0.9999999775851031  0.0  3.200588001822658e-08  1.0000
  Br  Br1       1.0  0.26221374355923116  0.2622137481317447  0.7377862050867611  1.0000
  Br  Br2       1.0  0.7377862757517201  0.7377862482486265  0.26221372960729883  1.0000
  Br  Br3       1.0  0.7377862458700702  0.2622137406714838  0.2622137880744315  1.0000
  Br  Br4       1.0  0.2622137809134653  0.737786199668787  0.7377862873746026  1.0000
  Br  Br5       1.0  0.2622137426565929  0.7377862928942541  0.2622137884701411  1.0000
  Br  Br6       1.0  0.7377861964707079  0.26221376631895676  0.7377862796899132  1.0000
