data_image0
_chemical_formula_structural       V2TeF6
_chemical_formula_sum              "V2 Te1 F6"
_cell_length_a       4.681528478239615
_cell_length_b       4.681528267557115
_cell_length_c       4.681528474210492
_cell_angle_alpha    60.00000019083968
_cell_angle_beta     60.00000090273485
_cell_angle_gamma    59.9999989363027

_space_group_name_H-M_alt    "P 1"
_space_group_IT_number       1

loop_
  _space_group_symop_operation_xyz
  'x, y, z'

loop_
  _atom_site_type_symbol
  _atom_site_label
  _atom_site_symmetry_multiplicity
  _atom_site_fract_x
  _atom_site_fract_y
  _atom_site_fract_z
  _atom_site_occupancy
  V   V1        1.0  0.25000000397228234  0.24999998529125794  0.2500000427986569  1.0000
  V   V2        1.0  0.7500000306015415  0.7500000108123323  0.749999952740802  1.0000
  Te  Te1       1.0  3.438142703452803e-08  7.848365424132888e-09  0.9999999682048316  1.0000
  F   F1        1.0  0.27000001884634806  0.2700000200865871  0.7299999783789616  1.0000
  F   F2        1.0  0.7299999894679803  0.7299999734008806  0.26999998033299805  1.0000
  F   F3        1.0  0.7299999592405099  0.2700000162101962  0.2700000364570207  1.0000
  F   F4        1.0  0.27000000350548176  0.7299999955901262  0.7299999956922063  1.0000
  F   F5        1.0  0.27000003403054074  0.7299999806517177  0.27000002594987804  1.0000
  F   F6        1.0  0.7299999383078981  0.27000000237126326  0.7300000072475775  1.0000
