data_image0
_chemical_formula_structural       V2TeI6
_chemical_formula_sum              "V2 Te1 I6"
_cell_length_a       7.889081141616474
_cell_length_b       7.889080927292816
_cell_length_c       7.889081062566451
_cell_angle_alpha    59.999999098102826
_cell_angle_beta     59.99999981722038
_cell_angle_gamma    59.99999990832174

_space_group_name_H-M_alt    "P 1"
_space_group_IT_number       1

loop_
  _space_group_symop_operation_xyz
  'x, y, z'

loop_
  _atom_site_type_symbol
  _atom_site_label
  _atom_site_symmetry_multiplicity
  _atom_site_fract_x
  _atom_site_fract_y
  _atom_site_fract_z
  _atom_site_occupancy
  V   V1        1.0  0.2499999931318005  0.24999996815352407  0.24999997576077473  1.0000
  V   V2        1.0  0.7500000129100731  0.7500000146849287  0.7499999821702854  1.0000
  Te  Te1       1.0  2.0904834333169128e-08  2.9496658814794764e-08  4.578343958524787e-08  1.0000
  I   I1        1.0  0.26537549471426564  0.2653754997275285  0.7346245184972495  1.0000
  I   I2        1.0  0.7346244705807614  0.7346245219223168  0.2653755139208732  1.0000
  I   I3        1.0  0.7346245109235795  0.2653754751285932  0.26537548534637734  1.0000
  I   I4        1.0  0.26537552320960234  0.734624467346011  0.7346244812561024  1.0000
  I   I5        1.0  0.26537547348652774  0.7346245272078257  0.26537550401357834  1.0000
  I   I6        1.0  0.7346245005017285  0.26537549909938707  0.7346244875047279  1.0000
