data_image0
_chemical_formula_structural       V2TiBr6
_chemical_formula_sum              "V2 Ti1 Br6"
_cell_length_a       7.008515778439058
_cell_length_b       7.008515688522598
_cell_length_c       7.0085157915889065
_cell_angle_alpha    59.999999381454764
_cell_angle_beta     59.99999883651386
_cell_angle_gamma    60.00000076016693

_space_group_name_H-M_alt    "P 1"
_space_group_IT_number       1

loop_
  _space_group_symop_operation_xyz
  'x, y, z'

loop_
  _atom_site_type_symbol
  _atom_site_label
  _atom_site_symmetry_multiplicity
  _atom_site_fract_x
  _atom_site_fract_y
  _atom_site_fract_z
  _atom_site_occupancy
  V   V1        1.0  0.25000004499054546  0.24999997720243589  0.24999992724593414  1.0000
  V   V2        1.0  0.7500000340873746  0.7499999228697581  0.7499999706712577  1.0000
  Ti  Ti1       1.0  0.9999999646186876  1.2232567015243113e-08  5.723311297050105e-08  1.0000
  Br  Br1       1.0  0.25068812492378684  0.2506881740554819  0.7493118279710002  1.0000
  Br  Br2       1.0  0.7493118620216268  0.7493118343623086  0.25068815315712706  1.0000
  Br  Br3       1.0  0.7493118187781197  0.2506882044493626  0.25068819127886716  1.0000
  Br  Br4       1.0  0.25068819461117414  0.7493118284335634  0.7493118157608344  1.0000
  Br  Br5       1.0  0.2506881655894202  0.7493118480749911  0.25068821540840536  1.0000
  Br  Br6       1.0  0.7493118009855279  0.25068819179797297  0.7493118386533275  1.0000
