data_image0
_chemical_formula_structural       V2TiI6
_chemical_formula_sum              "V2 Ti1 I6"
_cell_length_a       7.680123019054697
_cell_length_b       7.680122890886889
_cell_length_c       7.680122825206197
_cell_angle_alpha    59.99999991845127
_cell_angle_beta     59.99999983951927
_cell_angle_gamma    59.99999876593848

_space_group_name_H-M_alt    "P 1"
_space_group_IT_number       1

loop_
  _space_group_symop_operation_xyz
  'x, y, z'

loop_
  _atom_site_type_symbol
  _atom_site_label
  _atom_site_symmetry_multiplicity
  _atom_site_fract_x
  _atom_site_fract_y
  _atom_site_fract_z
  _atom_site_occupancy
  V   V1        1.0  0.2500000069976761  0.24999998761133857  0.2500000232243736  1.0000
  V   V2        1.0  0.7499999975129753  0.7500000377846517  0.7499999436790161  1.0000
  Ti  Ti1       1.0  0.9999999927404971  1.275755509489308e-08  0.9999999842303487  1.0000
  I   I1        1.0  0.2510469562080694  0.2510469537098516  0.7489530183459707  1.0000
  I   I2        1.0  0.7489530584336102  0.7489529871673367  0.2510469688244934  1.0000
  I   I3        1.0  0.7489530045970313  0.25104699661636787  0.2510469920906458  1.0000
  I   I4        1.0  0.2510469354145605  0.7489530734310657  0.748953060256178  1.0000
  I   I5        1.0  0.2510470034654806  0.7489529699601646  0.25104698361964517  1.0000
  I   I6        1.0  0.7489530454829137  0.2510469852692727  0.7489530273976496  1.0000
