data_image0
_chemical_formula_structural       V2TiF6
_chemical_formula_sum              "V2 Ti1 F6"
_cell_length_a       5.336848760684935
_cell_length_b       5.336849093914968
_cell_length_c       5.336848750973839
_cell_angle_alpha    60.00000309550239
_cell_angle_beta     60.00000727244411
_cell_angle_gamma    60.000007627731684

_space_group_name_H-M_alt    "P 1"
_space_group_IT_number       1

loop_
  _space_group_symop_operation_xyz
  'x, y, z'

loop_
  _atom_site_type_symbol
  _atom_site_label
  _atom_site_symmetry_multiplicity
  _atom_site_fract_x
  _atom_site_fract_y
  _atom_site_fract_z
  _atom_site_occupancy
  V   V1        1.0  0.25000076658380443  0.2500011244635955  0.24999997768323154  1.0000
  V   V2        1.0  0.7499996936497199  0.7500001766177038  0.7499992555959101  1.0000
  Ti  Ti1       1.0  2.9263463279931932e-08  1.6064188071673755e-08  0.9999999323658179  1.0000
  F   F1        1.0  0.255515687310649  0.2555156533161932  0.7444838262713016  1.0000
  F   F2        1.0  0.7444843324827057  0.7444842364116011  0.2555160593349638  1.0000
  F   F3        1.0  0.7444837896024604  0.2555153480865809  0.25551602185391015  1.0000
  F   F4        1.0  0.2555160794864684  0.7444841239723634  0.7444845020805528  1.0000
  F   F5        1.0  0.25551572913696907  0.744483406739274  0.25551581793702033  1.0000
  F   F6        1.0  0.7444839078765982  0.25551594369082653  0.7444846505026811  1.0000
