data_image0
_chemical_formula_structural       V2WBr6
_chemical_formula_sum              "V2 W1 Br6"
_cell_length_a       7.086232048736307
_cell_length_b       7.086232318705064
_cell_length_c       7.086232019513775
_cell_angle_alpha    59.999999103560796
_cell_angle_beta     59.99999924597463
_cell_angle_gamma    59.99999977811907

_space_group_name_H-M_alt    "P 1"
_space_group_IT_number       1

loop_
  _space_group_symop_operation_xyz
  'x, y, z'

loop_
  _atom_site_type_symbol
  _atom_site_label
  _atom_site_symmetry_multiplicity
  _atom_site_fract_x
  _atom_site_fract_y
  _atom_site_fract_z
  _atom_site_occupancy
  V   V1        1.0  0.2500000229979493  0.24999981039327945  0.25000011965938335  1.0000
  V   V2        1.0  0.74999991337503  0.7500000153601951  0.749999938664039  1.0000
  W   W1        1.0  1.878017765985068e-08  1.2098408952391896e-08  1.2784450577500479e-08  1.0000
  Br  Br1       1.0  0.25245431436829796  0.2524542984949564  0.7475457101420044  1.0000
  Br  Br2       1.0  0.7475456369129213  0.7475457709550528  0.2524543261292543  1.0000
  Br  Br3       1.0  0.7475456987361064  0.25245434401637146  0.25245428137108844  1.0000
  Br  Br4       1.0  0.2524543498547209  0.7475456925950985  0.7475456605723986  1.0000
  Br  Br5       1.0  0.25245433490833974  0.7475457556496196  0.2524542747990247  1.0000
  Br  Br6       1.0  0.7475457148177583  0.25245430688701354  0.7475456663149299  1.0000
