data_image0
_chemical_formula_structural       V2WCl6
_chemical_formula_sum              "V2 W1 Cl6"
_cell_length_a       6.704114640378671
_cell_length_b       6.704114531543509
_cell_length_c       6.704114336830538
_cell_angle_alpha    60.00000060239158
_cell_angle_beta     60.00000038591867
_cell_angle_gamma    59.99999930644291

_space_group_name_H-M_alt    "P 1"
_space_group_IT_number       1

loop_
  _space_group_symop_operation_xyz
  'x, y, z'

loop_
  _atom_site_type_symbol
  _atom_site_label
  _atom_site_symmetry_multiplicity
  _atom_site_fract_x
  _atom_site_fract_y
  _atom_site_fract_z
  _atom_site_occupancy
  V   V1        1.0  0.2500001256455355  0.25000015126596375  0.24999988883524013  1.0000
  V   V2        1.0  0.7500000686702561  0.7500002108261086  0.7499997631302295  1.0000
  W   W1        1.0  0.9999999865344319  0.9999999835583003  2.986984743354661e-08  1.0000
  Cl  Cl1       1.0  0.2526564738582976  0.2526564248264542  0.7473435736806165  1.0000
  Cl  Cl2       1.0  0.7473435443485418  0.747343447668338  0.2526565528419993  1.0000
  Cl  Cl3       1.0  0.7473434445703595  0.2526563710336102  0.25265658040718864  1.0000
  Cl  Cl4       1.0  0.25265639946755675  0.7473435124223167  0.7473435844623042  1.0000
  Cl  Cl5       1.0  0.2526564752502798  0.7473435032193355  0.2526564645008332  1.0000
  Cl  Cl6       1.0  0.7473434912673579  0.2526564003320012  0.7473435694162393  1.0000
