data_image0
_chemical_formula_structural       V2WF6
_chemical_formula_sum              "V2 W1 F6"
_cell_length_a       5.568005831561437
_cell_length_b       5.568007001848572
_cell_length_c       5.568007984968152
_cell_angle_alpha    59.999996458657144
_cell_angle_beta     59.999991346145755
_cell_angle_gamma    59.999990829471734

_space_group_name_H-M_alt    "P 1"
_space_group_IT_number       1

loop_
  _space_group_symop_operation_xyz
  'x, y, z'

loop_
  _atom_site_type_symbol
  _atom_site_label
  _atom_site_symmetry_multiplicity
  _atom_site_fract_x
  _atom_site_fract_y
  _atom_site_fract_z
  _atom_site_occupancy
  V   V1        1.0  0.24999668011382728  0.2500051836349251  0.24999707014980646  1.0000
  V   V2        1.0  0.7500006687530208  0.7500062619466259  0.7499945062344499  1.0000
  W   W1        1.0  1.2234452895106669e-08  0.9999999384108917  0.999999995941736  1.0000
  F   F1        1.0  0.25976829546772295  0.25976747913688397  0.74023315174387  1.0000
  F   F2        1.0  0.740234560528859  0.7402290750779909  0.25976922666380203  1.0000
  F   F3        1.0  0.7402330431874052  0.2597645767531714  0.2597712847388052  1.0000
  F   F4        1.0  0.259767912380649  0.740230642298062  0.7402330634758584  1.0000
  F   F5        1.0  0.25976735600620776  0.7402309012430452  0.2597690430977379  1.0000
  F   F6        1.0  0.7402315639097437  0.25976583334032205  0.7402326628821843  1.0000
