data_image0
_chemical_formula_structural       V2WI6
_chemical_formula_sum              "V2 W1 I6"
_cell_length_a       7.686409878481235
_cell_length_b       7.686409836169225
_cell_length_c       7.686409751189281
_cell_angle_alpha    60.00000021277945
_cell_angle_beta     60.00000140480381
_cell_angle_gamma    59.999999468356464

_space_group_name_H-M_alt    "P 1"
_space_group_IT_number       1

loop_
  _space_group_symop_operation_xyz
  'x, y, z'

loop_
  _atom_site_type_symbol
  _atom_site_label
  _atom_site_symmetry_multiplicity
  _atom_site_fract_x
  _atom_site_fract_y
  _atom_site_fract_z
  _atom_site_occupancy
  V   V1        1.0  0.24999999418974714  0.24999998048038918  0.25000001326725846  1.0000
  V   V2        1.0  0.7499999757244081  0.7500000115503285  0.750000019878589  1.0000
  W   W1        1.0  6.725293718911448e-08  0.9999999920330493  0.9999999651530171  1.0000
  I   I1        1.0  0.25133739560335017  0.2513373819318698  0.748662592900006  1.0000
  I   I2        1.0  0.7486625794085789  0.7486626579005489  0.2513373903781485  1.0000
  I   I3        1.0  0.7486626157319429  0.2513373500834448  0.2513373790047915  1.0000
  I   I4        1.0  0.25133732104130946  0.7486626467274435  0.7486626331944889  1.0000
  I   I5        1.0  0.2513373589568716  0.7486626507936098  0.2513373558433924  1.0000
  I   I6        1.0  0.7486626782102208  0.25133733327015734  0.7486626463584647  1.0000
