data_image0
_chemical_formula_structural       V2ZrI6
_chemical_formula_sum              "V2 Zr1 I6"
_cell_length_a       7.841034217785159
_cell_length_b       7.841034125756328
_cell_length_c       7.841034030516388
_cell_angle_alpha    60.00000121080423
_cell_angle_beta     60.000001105024765
_cell_angle_gamma    59.999999128852075

_space_group_name_H-M_alt    "P 1"
_space_group_IT_number       1

loop_
  _space_group_symop_operation_xyz
  'x, y, z'

loop_
  _atom_site_type_symbol
  _atom_site_label
  _atom_site_symmetry_multiplicity
  _atom_site_fract_x
  _atom_site_fract_y
  _atom_site_fract_z
  _atom_site_occupancy
  V   V1        1.0  0.24999998681499658  0.25000000964669666  0.25000000704820324  1.0000
  V   V2        1.0  0.7499999837698613  0.7499999898908758  0.750000026456097  1.0000
  Zr  Zr1       1.0  2.1836906205428474e-08  0.999999987504251  0.9999999608951874  1.0000
  I   I1        1.0  0.25553612501676937  0.25553606272662516  0.7444639260878833  1.0000
  I   I2        1.0  0.7444638819527142  0.7444639336870096  0.2555360780326533  1.0000
  I   I3        1.0  0.7444639278293468  0.2555360698284822  0.25553605331545304  1.0000
  I   I4        1.0  0.25553607186627697  0.7444639218992471  0.744463968263044  1.0000
  I   I5        1.0  0.25553603652450935  0.7444639304929225  0.2555360513309996  1.0000
  I   I6        1.0  0.744463961683149  0.25553608778827197  0.7444639309325655  1.0000
