data_image0
_chemical_formula_structural       V2ZrF6
_chemical_formula_sum              "V2 Zr1 F6"
_cell_length_a       6.209107390282674
_cell_length_b       6.209111251952388
_cell_length_c       6.20898253411961
_cell_angle_alpha    59.99938095747117
_cell_angle_beta     59.999260696751996
_cell_angle_gamma    59.99948847808236

_space_group_name_H-M_alt    "P 1"
_space_group_IT_number       1

loop_
  _space_group_symop_operation_xyz
  'x, y, z'

loop_
  _atom_site_type_symbol
  _atom_site_label
  _atom_site_symmetry_multiplicity
  _atom_site_fract_x
  _atom_site_fract_y
  _atom_site_fract_z
  _atom_site_occupancy
  V   V1        1.0  0.2500710928148927  0.2500723567144203  0.2496728760436136  1.0000
  V   V2        1.0  0.7500552371799737  0.7499777873755555  0.7500344715514302  1.0000
  Zr  Zr1       1.0  0.9999945915101619  0.9999936464724106  1.4557268498660606e-05  1.0000
  F   F1        1.0  0.23612928317301135  0.23617732499288221  0.763945989761706  1.0000
  F   F2        1.0  0.763814224062166  0.7638496119397812  0.23615418895096535  1.0000
  F   F3        1.0  0.7638555296763994  0.23616663757302425  0.23616998681590234  1.0000
  F   F4        1.0  0.23612793877752464  0.7637665778678937  0.7639222230231208  1.0000
  F   F5        1.0  0.23615678092624595  0.7638638643798564  0.23617890348227194  1.0000
  F   F6        1.0  0.7637848305999491  0.23615200109040085  0.7639037791710585  1.0000
