data_image0
_chemical_formula_structural       V2ZrBr6
_chemical_formula_sum              "V2 Zr1 Br6"
_cell_length_a       7.151583567055579
_cell_length_b       7.151583853236609
_cell_length_c       7.15158382534527
_cell_angle_alpha    60.00000151896234
_cell_angle_beta     60.00000150069815
_cell_angle_gamma    60.000002007061674

_space_group_name_H-M_alt    "P 1"
_space_group_IT_number       1

loop_
  _space_group_symop_operation_xyz
  'x, y, z'

loop_
  _atom_site_type_symbol
  _atom_site_label
  _atom_site_symmetry_multiplicity
  _atom_site_fract_x
  _atom_site_fract_y
  _atom_site_fract_z
  _atom_site_occupancy
  V   V1        1.0  0.2499999111361725  0.2499999998618255  0.25000004065974746  1.0000
  V   V2        1.0  0.7499999101200091  0.7499999053951997  0.750000021990388  1.0000
  Zr  Zr1       1.0  3.380882904326977e-08  5.137651598065626e-09  0.9999999791284687  1.0000
  Br  Br1       1.0  0.2556533024781528  0.2556533339254954  0.7443467239013837  1.0000
  Br  Br2       1.0  0.7443466959091426  0.744346737448929  0.25565331394512447  1.0000
  Br  Br3       1.0  0.7443467307721996  0.2556533053099492  0.25565328053197894  1.0000
  Br  Br4       1.0  0.255653360643986  0.744346685574602  0.7443466755372723  1.0000
  Br  Br5       1.0  0.2556533248090561  0.744346699977347  0.2556532785617792  1.0000
  Br  Br6       1.0  0.7443467119706711  0.2556533337209662  0.7443466708341946  1.0000
