data_image0
_chemical_formula_structural       W2AsS6
_chemical_formula_sum              "W2 As1 S6"
_cell_length_a       5.903328835635037
_cell_length_b       5.9033286903731055
_cell_length_c       5.9033289984818165
_cell_angle_alpha    59.99999938510828
_cell_angle_beta     59.99999991378729
_cell_angle_gamma    59.999994704151774

_space_group_name_H-M_alt    "P 1"
_space_group_IT_number       1

loop_
  _space_group_symop_operation_xyz
  'x, y, z'

loop_
  _atom_site_type_symbol
  _atom_site_label
  _atom_site_symmetry_multiplicity
  _atom_site_fract_x
  _atom_site_fract_y
  _atom_site_fract_z
  _atom_site_occupancy
  W   W1        1.0  0.24999996796820106  0.25000008304548066  0.24999991899463936  1.0000
  W   W2        1.0  0.7499999822098281  0.74999993793619  0.7499999733750375  1.0000
  As  As1       1.0  1.6458337042718633e-08  0.9999999917013264  4.504499268312726e-08  1.0000
  S   S1        1.0  0.2678678964919111  0.2678679686423566  0.7321320428158952  1.0000
  S   S2        1.0  0.7321320263018946  0.7321320523393162  0.26786795133178415  1.0000
  S   S3        1.0  0.7321320736842738  0.26786788846417164  0.26786803228582684  1.0000
  S   S4        1.0  0.26786796307378996  0.7321320370827535  0.7321320728682186  1.0000
  S   S5        1.0  0.2678680007038792  0.7321320534286049  0.2678679093727225  1.0000
  S   S6        1.0  0.7321320803882096  0.26786800904642694  0.7321320407797992  1.0000
