data_image0
_chemical_formula_structural       W2AsSe6
_chemical_formula_sum              "W2 As1 Se6"
_cell_length_a       6.298557503665764
_cell_length_b       6.298557160254518
_cell_length_c       6.2985574309898125
_cell_angle_alpha    59.99999958938008
_cell_angle_beta     60.00000139685259
_cell_angle_gamma    60.00000192179588

_space_group_name_H-M_alt    "P 1"
_space_group_IT_number       1

loop_
  _space_group_symop_operation_xyz
  'x, y, z'

loop_
  _atom_site_type_symbol
  _atom_site_label
  _atom_site_symmetry_multiplicity
  _atom_site_fract_x
  _atom_site_fract_y
  _atom_site_fract_z
  _atom_site_occupancy
  W   W1        1.0  0.25000007553700915  0.2499999469662174  0.24999992661039724  1.0000
  W   W2        1.0  0.7500000402615904  0.7500000314581591  0.7499999126776925  1.0000
  As  As1       1.0  2.6117264863612816e-09  0.9999999591658194  6.674118067408017e-08  1.0000
  Se  Se1       1.0  0.272879799753827  0.27288005096171236  0.7271200357972107  1.0000
  Se  Se2       1.0  0.727120084902415  0.7271199994085963  0.27288005614458954  1.0000
  Se  Se3       1.0  0.7271200407967632  0.2728799197354882  0.27288000242976784  1.0000
  Se  Se4       1.0  0.272880089445645  0.7271200703557985  0.727119914299875  1.0000
  Se  Se5       1.0  0.2728799334010869  0.7271201835599596  0.2728799956469402  1.0000
  Se  Se6       1.0  0.7271199238671963  0.2728798609768936  0.7271200922659206  1.0000
