data_image0
_chemical_formula_structural       W2AsO6
_chemical_formula_sum              "W2 As1 O6"
_cell_length_a       5.008873478786904
_cell_length_b       5.008873522489544
_cell_length_c       5.008873448016811
_cell_angle_alpha    60.00000064602566
_cell_angle_beta     59.99999951979502
_cell_angle_gamma    59.99999946138268

_space_group_name_H-M_alt    "P 1"
_space_group_IT_number       1

loop_
  _space_group_symop_operation_xyz
  'x, y, z'

loop_
  _atom_site_type_symbol
  _atom_site_label
  _atom_site_symmetry_multiplicity
  _atom_site_fract_x
  _atom_site_fract_y
  _atom_site_fract_z
  _atom_site_occupancy
  W   W1        1.0  0.2500001010526957  0.25000019221968334  0.2500000711739022  1.0000
  W   W2        1.0  0.7499997258798513  0.7500003443697737  0.7499999075668058  1.0000
  As  As1       1.0  1.7279886614896302e-08  0.9999998997488369  0.9999999895777584  1.0000
  O   O1        1.0  0.25238163683266346  0.2523813061832783  0.7476185378608157  1.0000
  O   O2        1.0  0.7476185014449171  0.7476185384286369  0.2523814634937636  1.0000
  O   O3        1.0  0.7476184147838063  0.25238144417669806  0.25238146750313295  1.0000
  O   O4        1.0  0.25238155352806746  0.7476184884606301  0.7476185588499392  1.0000
  O   O5        1.0  0.25238142643857614  0.7476183958454911  0.2523815328983649  1.0000
  O   O6        1.0  0.747618603793115  0.25238139252796793  0.747618480722396  1.0000
