data_image0
_chemical_formula_structural       W2GaTe6
_chemical_formula_sum              "W2 Ga1 Te6"
_cell_length_a       7.0910763101784635
_cell_length_b       7.091076271581927
_cell_length_c       7.091076443484346
_cell_angle_alpha    59.99999988665757
_cell_angle_beta     59.99999967523038
_cell_angle_gamma    60.00000009735871

_space_group_name_H-M_alt    "P 1"
_space_group_IT_number       1

loop_
  _space_group_symop_operation_xyz
  'x, y, z'

loop_
  _atom_site_type_symbol
  _atom_site_label
  _atom_site_symmetry_multiplicity
  _atom_site_fract_x
  _atom_site_fract_y
  _atom_site_fract_z
  _atom_site_occupancy
  W   W1        1.0  0.25000005713591966  0.2500000055529572  0.24999990681215195  1.0000
  W   W2        1.0  0.7499999473650678  0.7500000097502166  0.7499998697574833  1.0000
  Ga  Ga1       1.0  0.9999999855590349  0.9999999602752376  4.8236210406416086e-08  1.0000
  Te  Te1       1.0  0.2638970399094005  0.2638970797681111  0.7361029712503985  1.0000
  Te  Te2       1.0  0.7361029087325915  0.7361029614425183  0.2638971009294092  1.0000
  Te  Te3       1.0  0.7361029403104197  0.2638970504245898  0.2638971060994497  1.0000
  Te  Te4       1.0  0.26389711296030055  0.7361029406982958  0.7361029317587501  1.0000
  Te  Te5       1.0  0.26389710302582214  0.7361029271794501  0.2638970835307179  1.0000
  Te  Te6       1.0  0.7361028974620647  0.26389707085208997  0.7361029913668027  1.0000
