data_image0
_chemical_formula_structural       W2GaO6
_chemical_formula_sum              "W2 Ga1 O6"
_cell_length_a       5.004131246576446
_cell_length_b       5.0041312978336645
_cell_length_c       5.004131176986421
_cell_angle_alpha    60.00000028886186
_cell_angle_beta     60.00000093098869
_cell_angle_gamma    59.99999965334601

_space_group_name_H-M_alt    "P 1"
_space_group_IT_number       1

loop_
  _space_group_symop_operation_xyz
  'x, y, z'

loop_
  _atom_site_type_symbol
  _atom_site_label
  _atom_site_symmetry_multiplicity
  _atom_site_fract_x
  _atom_site_fract_y
  _atom_site_fract_z
  _atom_site_occupancy
  W   W1        1.0  0.24999976454973508  0.2500005656104589  0.249998933891912  1.0000
  W   W2        1.0  0.7499996228497352  0.7500004461754695  0.7499988970528257  1.0000
  Ga  Ga1       1.0  0.9999999773209578  1.9579740787888118e-08  0.9999999236140437  1.0000
  O   O1        1.0  0.2600868681935407  0.2600863403415276  0.739913706002043  1.0000
  O   O2        1.0  0.7399135193075812  0.7399132494657529  0.26008723948214396  1.0000
  O   O3        1.0  0.7399137543809144  0.26008626674221197  0.260086972300665  1.0000
  O   O4        1.0  0.2600867692905195  0.7399130391588389  0.7399138432198952  1.0000
  O   O5        1.0  0.2600865645799419  0.7399133903272509  0.260086728077579  1.0000
  O   O6        1.0  0.739913192686988  0.2600866987634091  0.7399137713046934  1.0000
