data_image0
_chemical_formula_structural       W2GaS6
_chemical_formula_sum              "W2 Ga1 S6"
_cell_length_a       5.905200688616634
_cell_length_b       5.905200466889272
_cell_length_c       5.905200620738302
_cell_angle_alpha    59.99999902887986
_cell_angle_beta     60.00000050011881
_cell_angle_gamma    60.00000000658327

_space_group_name_H-M_alt    "P 1"
_space_group_IT_number       1

loop_
  _space_group_symop_operation_xyz
  'x, y, z'

loop_
  _atom_site_type_symbol
  _atom_site_label
  _atom_site_symmetry_multiplicity
  _atom_site_fract_x
  _atom_site_fract_y
  _atom_site_fract_z
  _atom_site_occupancy
  W   W1        1.0  0.2500000260688849  0.2500000180983302  0.24999999142126647  1.0000
  W   W2        1.0  0.749999976092311  0.7500000086667544  0.7499999414494672  1.0000
  Ga  Ga1       1.0  0.9999999958519789  1.2444063953602815e-08  6.020203615042644e-08  1.0000
  S   S1        1.0  0.26587022463303844  0.2658701584654466  0.7341297897193598  1.0000
  S   S2        1.0  0.7341297545378652  0.7341298434115096  0.2658701806379649  1.0000
  S   S3        1.0  0.7341298391160542  0.26587017055023826  0.26587020739096967  1.0000
  S   S4        1.0  0.2658701636789178  0.7341297545883226  0.734129853873576  1.0000
  S   S5        1.0  0.2658701789464627  0.7341297657506318  0.26587023059746145  1.0000
  S   S6        1.0  0.7341298489703728  0.26587027760653853  0.7341297522231576  1.0000
