data_image0
_chemical_formula_structural       W2NO6
_chemical_formula_sum              "W2 N1 O6"
_cell_length_a       4.594613222252385
_cell_length_b       4.594613234675141
_cell_length_c       4.594613343074785
_cell_angle_alpha    59.999999821577724
_cell_angle_beta     59.99999947394632
_cell_angle_gamma    60.00000019342904

_space_group_name_H-M_alt    "P 1"
_space_group_IT_number       1

loop_
  _space_group_symop_operation_xyz
  'x, y, z'

loop_
  _atom_site_type_symbol
  _atom_site_label
  _atom_site_symmetry_multiplicity
  _atom_site_fract_x
  _atom_site_fract_y
  _atom_site_fract_z
  _atom_site_occupancy
  W   W1        1.0  0.25000035059861947  0.2500003557073742  0.24999948724129428  1.0000
  W   W2        1.0  0.7499996488120205  0.7499998702630613  0.7500001925847417  1.0000
  N   N1        1.0  1.945499412305731e-07  2.5323298647188494e-07  0.9999997848143847  1.0000
  O   O1        1.0  0.24903739100223535  0.24903728676578202  0.7509627122855764  1.0000
  O   O2        1.0  0.7509624277746411  0.7509623954201377  0.24903761704254151  1.0000
  O   O3        1.0  0.7509624378522886  0.24903750581178483  0.24903738935505668  1.0000
  O   O4        1.0  0.24903763023275616  0.7509623256483166  0.7509627102114236  1.0000
  O   O5        1.0  0.24903759402918751  0.7509624215025588  0.2490373631064644  1.0000
  O   O6        1.0  0.7509623299649358  0.24903758588782698  0.7509627335991053  1.0000
