data_image0
_chemical_formula_structural       Y2AsBr6
_chemical_formula_sum              "Y2 As1 Br6"
_cell_length_a       7.2752718430695795
_cell_length_b       7.275272156942945
_cell_length_c       7.2752718973634565
_cell_angle_alpha    60.00000062038637
_cell_angle_beta     59.9999987054031
_cell_angle_gamma    60.000000727348656

_space_group_name_H-M_alt    "P 1"
_space_group_IT_number       1

loop_
  _space_group_symop_operation_xyz
  'x, y, z'

loop_
  _atom_site_type_symbol
  _atom_site_label
  _atom_site_symmetry_multiplicity
  _atom_site_fract_x
  _atom_site_fract_y
  _atom_site_fract_z
  _atom_site_occupancy
  Y   Y1        1.0  0.2500001013888026  0.25000015500435907  0.24999995141836964  1.0000
  Y   Y2        1.0  0.7500000855293835  0.7500001114917063  0.7499998255694417  1.0000
  As  As1       1.0  4.840147385527847e-08  0.9999999309791607  0.9999999924409346  1.0000
  Br  Br1       1.0  0.2530632829284276  0.25306323805180286  0.7469367326741165  1.0000
  Br  Br2       1.0  0.7469366752356016  0.7469367338431192  0.2530633609721108  1.0000
  Br  Br3       1.0  0.7469366852446474  0.2530631658022308  0.2530633257849044  1.0000
  Br  Br4       1.0  0.25306324345383946  0.7469367421221574  0.746936751351484  1.0000
  Br  Br5       1.0  0.2530631746577218  0.7469366641800428  0.2530633172160749  1.0000
  Br  Br6       1.0  0.7469366981051286  0.25306326394556694  0.7469367434245446  1.0000
