data_image0
_chemical_formula_structural       Y2AsO6
_chemical_formula_sum              "Y2 As1 O6"
_cell_length_a       5.252629027021419
_cell_length_b       5.252628655878631
_cell_length_c       5.252629005345573
_cell_angle_alpha    59.99999968297523
_cell_angle_beta     59.99999982748345
_cell_angle_gamma    59.99999941916344

_space_group_name_H-M_alt    "P 1"
_space_group_IT_number       1

loop_
  _space_group_symop_operation_xyz
  'x, y, z'

loop_
  _atom_site_type_symbol
  _atom_site_label
  _atom_site_symmetry_multiplicity
  _atom_site_fract_x
  _atom_site_fract_y
  _atom_site_fract_z
  _atom_site_occupancy
  Y   Y1        1.0  0.2499999648890591  0.24999998206178745  0.24999998329971979  1.0000
  Y   Y2        1.0  0.7500000131102257  0.749999960175446  0.7500000264682343  1.0000
  As  As1       1.0  0.9999999969139739  0.9999999696881604  0.9999999957570385  1.0000
  O   O1        1.0  0.247571134247583  0.24757109164356633  0.7524288813679844  1.0000
  O   O2        1.0  0.7524288909147738  0.7524289135490261  0.24757109618645762  1.0000
  O   O3        1.0  0.7524289265031137  0.24757111137926233  0.24757104790693168  1.0000
  O   O4        1.0  0.24757108378146625  0.7524289054717295  0.752428923641965  1.0000
  O   O5        1.0  0.24757110260059517  0.7524288801105897  0.24757109908975117  1.0000
  O   O6        1.0  0.752428935107858  0.24757112041864404  0.7524289221185354  1.0000
