data_image0
_chemical_formula_structural       Y2AsSe6
_chemical_formula_sum              "Y2 As1 Se6"
_cell_length_a       6.663362191987713
_cell_length_b       6.663362182509604
_cell_length_c       6.663362326241336
_cell_angle_alpha    60.00000126100397
_cell_angle_beta     60.00000092037379
_cell_angle_gamma    60.000000223315915

_space_group_name_H-M_alt    "P 1"
_space_group_IT_number       1

loop_
  _space_group_symop_operation_xyz
  'x, y, z'

loop_
  _atom_site_type_symbol
  _atom_site_label
  _atom_site_symmetry_multiplicity
  _atom_site_fract_x
  _atom_site_fract_y
  _atom_site_fract_z
  _atom_site_occupancy
  Y   Y1        1.0  0.24999999582976498  0.250000149166729  0.24999987523325673  1.0000
  Y   Y2        1.0  0.7499999621356506  0.7499998685212643  0.7500003195601882  1.0000
  As  As1       1.0  0.9999999982310172  6.249296113974378e-08  0.9999998060569326  1.0000
  Se  Se1       1.0  0.258468233961002  0.25846828842634845  0.7415317268175045  1.0000
  Se  Se2       1.0  0.7415316771467998  0.741531672282761  0.2584681897305422  1.0000
  Se  Se3       1.0  0.7415317225925847  0.2584683826187984  0.25846819022943024  1.0000
  Se  Se4       1.0  0.2584682464520115  0.7415316902100433  0.7415318453915184  1.0000
  Se  Se5       1.0  0.2584683873513231  0.7415316602374455  0.25846823996574086  1.0000
  Se  Se6       1.0  0.7415317782329649  0.2584682232744753  0.7415318010482848  1.0000
