data_image0
_chemical_formula_structural       Y2AsI6
_chemical_formula_sum              "Y2 As1 I6"
_cell_length_a       7.888737560110662
_cell_length_b       7.888737349550932
_cell_length_c       7.888737506177959
_cell_angle_alpha    59.9999998135455
_cell_angle_beta     59.99999955363835
_cell_angle_gamma    59.999999623054244

_space_group_name_H-M_alt    "P 1"
_space_group_IT_number       1

loop_
  _space_group_symop_operation_xyz
  'x, y, z'

loop_
  _atom_site_type_symbol
  _atom_site_label
  _atom_site_symmetry_multiplicity
  _atom_site_fract_x
  _atom_site_fract_y
  _atom_site_fract_z
  _atom_site_occupancy
  Y   Y1        1.0  0.24999999219832736  0.25000001204994443  0.24999998822887404  1.0000
  Y   Y2        1.0  0.7500000183355304  0.7499999197105842  0.7500000451353903  1.0000
  As  As1       1.0  7.924962861654878e-09  0.9999999937899069  1.9424644413318507e-08  1.0000
  I   I1        1.0  0.25673291420849215  0.2567329510444878  0.7432670700009631  1.0000
  I   I2        1.0  0.7432670549399781  0.7432670785250104  0.2567329250104711  1.0000
  I   I3        1.0  0.7432670680397995  0.2567329612772857  0.2567329065120068  1.0000
  I   I4        1.0  0.25673293263094255  0.7432670527669791  0.7432670665569785  1.0000
  I   I5        1.0  0.25673293797352637  0.7432670598041486  0.256732932822078  1.0000
  I   I6        1.0  0.7432670766394573  0.25673296510777954  0.7432670430535144  1.0000
