data_image0
_chemical_formula_structural       Y2AsS6
_chemical_formula_sum              "Y2 As1 S6"
_cell_length_a       6.396235253344865
_cell_length_b       6.396235164826827
_cell_length_c       6.396235083194441
_cell_angle_alpha    59.99999973346965
_cell_angle_beta     59.99999941039179
_cell_angle_gamma    60.00000004534347

_space_group_name_H-M_alt    "P 1"
_space_group_IT_number       1

loop_
  _space_group_symop_operation_xyz
  'x, y, z'

loop_
  _atom_site_type_symbol
  _atom_site_label
  _atom_site_symmetry_multiplicity
  _atom_site_fract_x
  _atom_site_fract_y
  _atom_site_fract_z
  _atom_site_occupancy
  Y   Y1        1.0  0.25000006041113837  0.2500000648377415  0.24999987676490792  1.0000
  Y   Y2        1.0  0.7500000371270737  0.7499998307030755  0.7500000452852025  1.0000
  As  As1       1.0  9.536374052124115e-09  3.6381014878081216e-08  0.999999956716849  1.0000
  S   S1        1.0  0.255967970661674  0.2559679307321384  0.7440320837139871  1.0000
  S   S2        1.0  0.7440319833456479  0.7440320758665122  0.25596798433648865  1.0000
  S   S3        1.0  0.74403203790416  0.2559680259905259  0.2559678828854764  1.0000
  S   S4        1.0  0.25596794540691314  0.7440319901820761  0.7440321125698774  1.0000
  S   S5        1.0  0.25596793237200083  0.7440320563851545  0.255967963983432  1.0000
  S   S6        1.0  0.7440320485862467  0.2559679885093013  0.7440320839510354  1.0000
