data_image0
_chemical_formula_structural       Y2AsF6
_chemical_formula_sum              "Y2 As1 F6"
_cell_length_a       5.364073812629922
_cell_length_b       5.364074709873113
_cell_length_c       5.364074606301347
_cell_angle_alpha    60.00000388212955
_cell_angle_beta     60.00000394184805
_cell_angle_gamma    60.0000008996271

_space_group_name_H-M_alt    "P 1"
_space_group_IT_number       1

loop_
  _space_group_symop_operation_xyz
  'x, y, z'

loop_
  _atom_site_type_symbol
  _atom_site_label
  _atom_site_symmetry_multiplicity
  _atom_site_fract_x
  _atom_site_fract_y
  _atom_site_fract_z
  _atom_site_occupancy
  Y   Y1        1.0  0.24999957590028463  0.25000150686540423  0.24999987234641705  1.0000
  Y   Y2        1.0  0.7500012529132546  0.7500009747306554  0.7499978697537624  1.0000
  As  As1       1.0  0.9999999950789049  4.086992340725386e-07  0.9999997291335252  1.0000
  F   F1        1.0  0.27964133399758284  0.27964279345457727  0.7203575579494832  1.0000
  F   F2        1.0  0.720358360945675  0.720357587564474  0.27964270553762605  1.0000
  F   F3        1.0  0.7203581494010054  0.2796407931203654  0.27964325218312114  1.0000
  F   F4        1.0  0.27964160394502563  0.7203571265703368  0.7203588149209097  1.0000
  F   F5        1.0  0.2796406498208328  0.7203571136655542  0.27964329362382273  1.0000
  F   F6        1.0  0.7203590741560107  0.2796416690883318  0.7203569677636578  1.0000
