data_image0
_chemical_formula_structural       Y2AsF6
_chemical_formula_sum              "Y2 As1 F6"
_cell_length_a       5.36384092184847
_cell_length_b       5.36384199460519
_cell_length_c       5.363841448326558
_cell_angle_alpha    59.99999734346442
_cell_angle_beta     59.99999305278251
_cell_angle_gamma    59.999994807874764

_space_group_name_H-M_alt    "P 1"
_space_group_IT_number       1

loop_
  _space_group_symop_operation_xyz
  'x, y, z'

loop_
  _atom_site_type_symbol
  _atom_site_label
  _atom_site_symmetry_multiplicity
  _atom_site_fract_x
  _atom_site_fract_y
  _atom_site_fract_z
  _atom_site_occupancy
  Y   Y1        1.0  0.24999708056751233  0.24999993720639047  0.2500015763639461  1.0000
  Y   Y2        1.0  0.7500004579891361  0.7500000559354102  0.7499998813370143  1.0000
  As  As1       1.0  0.9999998500948756  0.9999997328497792  5.552940909945357e-07  1.0000
  F   F1        1.0  0.27961241123128017  0.27961359352722814  0.7203869550082456  1.0000
  F   F2        1.0  0.7203876460686676  0.7203861347475579  0.27961275120212337  1.0000
  F   F3        1.0  0.7203886847651441  0.2796132306658546  0.2796130118487153  1.0000
  F   F4        1.0  0.27961229385145914  0.7203874794429425  0.720386462419751  1.0000
  F   F5        1.0  0.2796128103801727  0.720387238520678  0.2796135794158588  1.0000
  F   F6        1.0  0.7203887355330104  0.27961262218744926  0.7203852379690835  1.0000
