data_image0
_chemical_formula_structural       Y2AsI6
_chemical_formula_sum              "Y2 As1 I6"
_cell_length_a       7.888797549833972
_cell_length_b       7.888797722966156
_cell_length_c       7.88879769570761
_cell_angle_alpha    60.00000028546908
_cell_angle_beta     60.000000079590286
_cell_angle_gamma    60.00000151845588

_space_group_name_H-M_alt    "P 1"
_space_group_IT_number       1

loop_
  _space_group_symop_operation_xyz
  'x, y, z'

loop_
  _atom_site_type_symbol
  _atom_site_label
  _atom_site_symmetry_multiplicity
  _atom_site_fract_x
  _atom_site_fract_y
  _atom_site_fract_z
  _atom_site_occupancy
  Y   Y1        1.0  0.24999996207305028  0.25000005875082437  0.2499999116295171  1.0000
  Y   Y2        1.0  0.7499999858893391  0.749999938718226  0.7500001372047164  1.0000
  As  As1       1.0  1.9797023019845495e-08  1.0867580202103413e-08  0.9999999821324579  1.0000
  I   I1        1.0  0.25673250987331075  0.25673253981152966  0.7432674963893546  1.0000
  I   I2        1.0  0.7432675192000734  0.7432674514474761  0.2567324630219725  1.0000
  I   I3        1.0  0.7432674891203621  0.256732525304815  0.2567324840390007  1.0000
  I   I4        1.0  0.2567325080022767  0.7432674783742816  0.7432675333072243  1.0000
  I   I5        1.0  0.25673252376853506  0.7432675175139041  0.25673249151510313  1.0000
  I   I6        1.0  0.7432674798152843  0.25673247995514703  0.7432674952826678  1.0000
