data_image0
_chemical_formula_structural       Y2AsCl6
_chemical_formula_sum              "Y2 As1 Cl6"
_cell_length_a       6.916973662557477
_cell_length_b       6.9169737198411125
_cell_length_c       6.916974156796232
_cell_angle_alpha    60.00000004778752
_cell_angle_beta     60.000001864464586
_cell_angle_gamma    60.00000222809484

_space_group_name_H-M_alt    "P 1"
_space_group_IT_number       1

loop_
  _space_group_symop_operation_xyz
  'x, y, z'

loop_
  _atom_site_type_symbol
  _atom_site_label
  _atom_site_symmetry_multiplicity
  _atom_site_fract_x
  _atom_site_fract_y
  _atom_site_fract_z
  _atom_site_occupancy
  Y   Y1        1.0  0.250000408780698  0.24999970695709714  0.249999970292594  1.0000
  Y   Y2        1.0  0.7499999740923634  0.7500001832533806  0.7499996241418005  1.0000
  As  As1       1.0  0.9999999054012384  5.843101493342421e-08  6.290115595518163e-08  1.0000
  Cl  Cl1       1.0  0.2526248906518796  0.25262449613811266  0.7473756748682789  1.0000
  Cl  Cl2       1.0  0.7473752401747664  0.7473756844568115  0.25262463626799697  1.0000
  Cl  Cl3       1.0  0.7473752985007784  0.2526243392784507  0.2526248035836036  1.0000
  Cl  Cl4       1.0  0.2526245580657725  0.7473754871890902  0.747375175510066  1.0000
  Cl  Cl5       1.0  0.2526247082045574  0.7473753591608197  0.252624554950573  1.0000
  Cl  Cl6       1.0  0.747375010321828  0.25262476123243877  0.7473755095665523  1.0000
