data_image0
_chemical_formula_structural       Y2AsBr6
_chemical_formula_sum              "Y2 As1 Br6"
_cell_length_a       7.275210674581138
_cell_length_b       7.275210624560177
_cell_length_c       7.275210510953159
_cell_angle_alpha    59.99999941657996
_cell_angle_beta     60.000000270096336
_cell_angle_gamma    59.99999994942129

_space_group_name_H-M_alt    "P 1"
_space_group_IT_number       1

loop_
  _space_group_symop_operation_xyz
  'x, y, z'

loop_
  _atom_site_type_symbol
  _atom_site_label
  _atom_site_symmetry_multiplicity
  _atom_site_fract_x
  _atom_site_fract_y
  _atom_site_fract_z
  _atom_site_occupancy
  Y   Y1        1.0  0.2500000942314466  0.2500002665309067  0.2500001608995858  1.0000
  Y   Y2        1.0  0.7499998743599792  0.7499997676382548  0.7500007808622638  1.0000
  As  As1       1.0  0.9999999647933979  1.515104509357609e-08  0.9999999330540608  1.0000
  Br  Br1       1.0  0.25306989789857287  0.25306991161675996  0.7469299189102775  1.0000
  Br  Br2       1.0  0.7469301402093531  0.746930028279251  0.2530696923134304  1.0000
  Br  Br3       1.0  0.7469300102138704  0.253070086016706  0.25306971488106506  1.0000
  Br  Br4       1.0  0.2530698366439252  0.7469300895622156  0.7469300280736867  1.0000
  Br  Br5       1.0  0.2530700809976019  0.7469299635270412  0.25306975764073164  1.0000
  Br  Br6       1.0  0.746930097953251  0.25306988714615136  0.7469300037128483  1.0000
