data_image0
_chemical_formula_structural       Y2AsCl6
_chemical_formula_sum              "Y2 As1 Cl6"
_cell_length_a       6.916946695246568
_cell_length_b       6.916946830795109
_cell_length_c       6.916946608293474
_cell_angle_alpha    60.00000237540619
_cell_angle_beta     60.00000057138943
_cell_angle_gamma    60.000000045601325

_space_group_name_H-M_alt    "P 1"
_space_group_IT_number       1

loop_
  _space_group_symop_operation_xyz
  'x, y, z'

loop_
  _atom_site_type_symbol
  _atom_site_label
  _atom_site_symmetry_multiplicity
  _atom_site_fract_x
  _atom_site_fract_y
  _atom_site_fract_z
  _atom_site_occupancy
  Y   Y1        1.0  0.24999970192307733  0.24999975808443972  0.24999984712513482  1.0000
  Y   Y2        1.0  0.7499998193083524  0.7499999081437744  0.7500000936351007  1.0000
  As  As1       1.0  0.9999999878253978  0.9999999964587112  0.9999998979828745  1.0000
  Cl  Cl1       1.0  0.25262484122203055  0.25262512340249055  0.7473750901297771  1.0000
  Cl  Cl2       1.0  0.7473753017182856  0.7473750315233846  0.25262477251631454  1.0000
  Cl  Cl3       1.0  0.747375277046422  0.2526249747733942  0.25262495827855774  1.0000
  Cl  Cl4       1.0  0.2526249153994405  0.7473753271159129  0.7473751241924622  1.0000
  Cl  Cl5       1.0  0.2526249243188134  0.7473750225839353  0.25262490687424255  1.0000
  Cl  Cl6       1.0  0.7473752215090406  0.25262489330504156  0.7473753022710166  1.0000
