data_image0
_chemical_formula_structural       Y2BBr6
_chemical_formula_sum              "Y2 B1 Br6"
_cell_length_a       7.1355815726997
_cell_length_b       7.135581654140682
_cell_length_c       7.1355822475966155
_cell_angle_alpha    59.999996114036335
_cell_angle_beta     59.99999555144479
_cell_angle_gamma    59.99999667007507

_space_group_name_H-M_alt    "P 1"
_space_group_IT_number       1

loop_
  _space_group_symop_operation_xyz
  'x, y, z'

loop_
  _atom_site_type_symbol
  _atom_site_label
  _atom_site_symmetry_multiplicity
  _atom_site_fract_x
  _atom_site_fract_y
  _atom_site_fract_z
  _atom_site_occupancy
  Y   Y1        1.0  0.24999974488397184  0.2500004970515754  0.25000006305498745  1.0000
  Y   Y2        1.0  0.7500000671487849  0.7500000665500635  0.7500004431760429  1.0000
  B   B1        1.0  3.6066330695556695e-08  5.13200947799492e-07  4.75129979247619e-07  1.0000
  Br  Br1       1.0  0.25172940581706515  0.2517293315160968  0.7482705106820647  1.0000
  Br  Br2       1.0  0.7482706176965658  0.7482702966523721  0.25172921396041553  1.0000
  Br  Br3       1.0  0.7482706437754835  0.2517292343740028  0.2517292646836483  1.0000
  Br  Br4       1.0  0.25172940190254545  0.7482704195403331  0.7482704079751524  1.0000
  Br  Br5       1.0  0.2517294617006563  0.748270337631934  0.2517292697507997  1.0000
  Br  Br6       1.0  0.7482706040664152  0.25172930941683785  0.748270326224895  1.0000
