data_image0
_chemical_formula_structural       Y2BCl6
_chemical_formula_sum              "Y2 B1 Cl6"
_cell_length_a       6.142929120493047
_cell_length_b       6.142927877159791
_cell_length_c       6.142927803911511
_cell_angle_alpha    59.9999982350063
_cell_angle_beta     59.99999776095389
_cell_angle_gamma    59.99998987332004

_space_group_name_H-M_alt    "P 1"
_space_group_IT_number       1

loop_
  _space_group_symop_operation_xyz
  'x, y, z'

loop_
  _atom_site_type_symbol
  _atom_site_label
  _atom_site_symmetry_multiplicity
  _atom_site_fract_x
  _atom_site_fract_y
  _atom_site_fract_z
  _atom_site_occupancy
  Y   Y1        1.0  0.24999927963653087  0.249999496738521  0.2500007656004142  1.0000
  Y   Y2        1.0  0.7500004388655008  0.7499998878326694  0.7500001710392455  1.0000
  B   B1        1.0  4.1086471180208917e-07  0.9999998444876234  0.9999984251311507  1.0000
  Cl  Cl1       1.0  0.2286917360471287  0.22869165385245374  0.77130850595063  1.0000
  Cl  Cl2       1.0  0.7713082287370463  0.7713088133238238  0.22869164903742556  1.0000
  Cl  Cl3       1.0  0.7713087735820258  0.22869138567998232  0.2286914264248132  1.0000
  Cl  Cl4       1.0  0.22869144258040633  0.7713086149592719  0.7713086977721141  1.0000
  Cl  Cl5       1.0  0.22869142585332877  0.7713086489894351  0.22869156966206908  1.0000
  Cl  Cl6       1.0  0.7713083708211377  0.22869169656823077  0.7713086308889773  1.0000
