data_image0
_chemical_formula_structural       Y2BF6
_chemical_formula_sum              "Y2 B1 F6"
_cell_length_a       5.418095098272325
_cell_length_b       5.41809539833122
_cell_length_c       5.418094673397991
_cell_angle_alpha    59.99999321342781
_cell_angle_beta     59.99999367276737
_cell_angle_gamma    59.99999709832253

_space_group_name_H-M_alt    "P 1"
_space_group_IT_number       1

loop_
  _space_group_symop_operation_xyz
  'x, y, z'

loop_
  _atom_site_type_symbol
  _atom_site_label
  _atom_site_symmetry_multiplicity
  _atom_site_fract_x
  _atom_site_fract_y
  _atom_site_fract_z
  _atom_site_occupancy
  Y   Y1        1.0  0.2499995242461297  0.25000031766971564  0.2500005288670977  1.0000
  Y   Y2        1.0  0.7499994028371436  0.7499991084646401  0.7500008867578756  1.0000
  B   B1        1.0  0.9999998422695398  3.8428008626802066e-08  9.471891131484026e-08  1.0000
  F   F1        1.0  0.2662009196746313  0.26620133150013287  0.7337985804234566  1.0000
  F   F2        1.0  0.7337996525527779  0.7337985489890627  0.26620086815524674  1.0000
  F   F3        1.0  0.7337990382466828  0.26620171383115937  0.2662004639177864  1.0000
  F   F4        1.0  0.26620136790990623  0.7337987543805741  0.733798914105732  1.0000
  F   F5        1.0  0.26620139089293854  0.73379854940121  0.26620085248412556  1.0000
  F   F6        1.0  0.7337991192231502  0.2662016452934888  0.7337986250835147  1.0000
