data_image0
_chemical_formula_structural       Y2BiSe6
_chemical_formula_sum              "Y2 Bi1 Se6"
_cell_length_a       7.002904215010027
_cell_length_b       7.002904121043525
_cell_length_c       7.002904116758518
_cell_angle_alpha    59.99999948595213
_cell_angle_beta     59.99999988897804
_cell_angle_gamma    59.999999625388945

_space_group_name_H-M_alt    "P 1"
_space_group_IT_number       1

loop_
  _space_group_symop_operation_xyz
  'x, y, z'

loop_
  _atom_site_type_symbol
  _atom_site_label
  _atom_site_symmetry_multiplicity
  _atom_site_fract_x
  _atom_site_fract_y
  _atom_site_fract_z
  _atom_site_occupancy
  Y   Y1        1.0  0.2500000141653999  0.24999979413632942  0.25000003686529815  1.0000
  Y   Y2        1.0  0.7499999296598737  0.7500001117044421  0.7500001008139385  1.0000
  Bi  Bi1       1.0  0.999999978747337  1.9238009375812454e-08  5.3842549701652295e-08  1.0000
  Se  Se1       1.0  0.27106281315264813  0.2710627718934511  0.7289372499344594  1.0000
  Se  Se2       1.0  0.7289371217765707  0.7289372546221081  0.2710627833041246  1.0000
  Se  Se3       1.0  0.7289372431760887  0.2710628031516818  0.27106270740034355  1.0000
  Se  Se4       1.0  0.271062873513747  0.728937232108428  0.728937150618832  1.0000
  Se  Se5       1.0  0.27106278358547387  0.7289373020940902  0.27106275355281956  1.0000
  Se  Se6       1.0  0.728937246313424  0.2710627016856399  0.7289371536061622  1.0000
