data_image0
_chemical_formula_structural       Y2BI6
_chemical_formula_sum              "Y2 B1 I6"
_cell_length_a       7.658515556925024
_cell_length_b       7.658515728656041
_cell_length_c       7.658515650810735
_cell_angle_alpha    60.000000379511505
_cell_angle_beta     59.999999843346394
_cell_angle_gamma    60.000000645830234

_space_group_name_H-M_alt    "P 1"
_space_group_IT_number       1

loop_
  _space_group_symop_operation_xyz
  'x, y, z'

loop_
  _atom_site_type_symbol
  _atom_site_label
  _atom_site_symmetry_multiplicity
  _atom_site_fract_x
  _atom_site_fract_y
  _atom_site_fract_z
  _atom_site_occupancy
  Y   Y1        1.0  0.2500000105771033  0.2500000562332789  0.24999997296965706  1.0000
  Y   Y2        1.0  0.7499999319020938  0.75000010633129  0.7499999595300348  1.0000
  B   B1        1.0  0.9999999958269434  7.995967517399864e-09  1.506311322834699e-08  1.0000
  I   I1        1.0  0.25065164744611257  0.2506515226661073  0.7493484127799622  1.0000
  I   I2        1.0  0.7493484142696151  0.7493484224081449  0.2506515714580949  1.0000
  I   I3        1.0  0.7493484060047748  0.25065152980428473  0.2506516379080319  1.0000
  I   I4        1.0  0.2506515947012956  0.7493483992780324  0.7493484344487913  1.0000
  I   I5        1.0  0.250651591259319  0.7493483787128751  0.2506515874081792  1.0000
  I   I6        1.0  0.7493484104971887  0.2506515743573446  0.7493484097541434  1.0000
