data_image0
_chemical_formula_structural       Y2BiS6
_chemical_formula_sum              "Y2 Bi1 S6"
_cell_length_a       6.664145573229339
_cell_length_b       6.6641456355418605
_cell_length_c       6.664145619871794
_cell_angle_alpha    59.99999961974119
_cell_angle_beta     59.999998602709475
_cell_angle_gamma    59.99999914133177

_space_group_name_H-M_alt    "P 1"
_space_group_IT_number       1

loop_
  _space_group_symop_operation_xyz
  'x, y, z'

loop_
  _atom_site_type_symbol
  _atom_site_label
  _atom_site_symmetry_multiplicity
  _atom_site_fract_x
  _atom_site_fract_y
  _atom_site_fract_z
  _atom_site_occupancy
  Y   Y1        1.0  0.2500001250723082  0.24999998568581328  0.24999993105860557  1.0000
  Y   Y2        1.0  0.7499998847740308  0.7499999313280712  0.749999997241524  1.0000
  Bi  Bi1       1.0  0.9999999770543956  2.2053747624549118e-08  2.7456142599623825e-08  1.0000
  S   S1        1.0  0.2642912090240869  0.26429118113394884  0.735708830207642  1.0000
  S   S2        1.0  0.7357088038311709  0.7357088204193009  0.26429121037736014  1.0000
  S   S3        1.0  0.7357088215121179  0.2642912020564065  0.26429119090489384  1.0000
  S   S4        1.0  0.2642912354836091  0.735708786632157  0.7357087755200858  1.0000
  S   S5        1.0  0.264291190141663  0.7357087833277043  0.26429124548611677  1.0000
  S   S6        1.0  0.7357087543842804  0.26429128806241303  0.7357087853417044  1.0000
