data_image0
_chemical_formula_structural       Y2BiBr6
_chemical_formula_sum              "Y2 Bi1 Br6"
_cell_length_a       7.499605096477173
_cell_length_b       7.499605315061653
_cell_length_c       7.499605329421291
_cell_angle_alpha    60.0000003346555
_cell_angle_beta     59.99999970692987
_cell_angle_gamma    59.99999926578606

_space_group_name_H-M_alt    "P 1"
_space_group_IT_number       1

loop_
  _space_group_symop_operation_xyz
  'x, y, z'

loop_
  _atom_site_type_symbol
  _atom_site_label
  _atom_site_symmetry_multiplicity
  _atom_site_fract_x
  _atom_site_fract_y
  _atom_site_fract_z
  _atom_site_occupancy
  Y   Y1        1.0  0.24999996864424615  0.24999994993152164  0.2500000115552594  1.0000
  Y   Y2        1.0  0.7500000360104391  0.7499999722754954  0.749999961722604  1.0000
  Bi  Bi1       1.0  6.03891302130751e-08  3.592773911245827e-08  0.9999998825045837  1.0000
  Br  Br1       1.0  0.2638655795578741  0.2638656037687277  0.7361344106720719  1.0000
  Br  Br2       1.0  0.7361343975212604  0.7361343919268494  0.26386559431883055  1.0000
  Br  Br3       1.0  0.7361343830895838  0.2638655864141546  0.2638656008303603  1.0000
  Br  Br4       1.0  0.26386556307046866  0.7361344697053496  0.7361344534114874  1.0000
  Br  Br5       1.0  0.263865618279381  0.7361344460221051  0.26386557223179763  1.0000
  Br  Br6       1.0  0.7361343958455148  0.2638655447742341  0.7361345020236674  1.0000
