data_image0
_chemical_formula_structural       Y2BiCl6
_chemical_formula_sum              "Y2 Bi1 Cl6"
_cell_length_a       7.210164347071146
_cell_length_b       7.210164557035405
_cell_length_c       7.210164537647743
_cell_angle_alpha    60.00000018235296
_cell_angle_beta     60.000001360124195
_cell_angle_gamma    60.000001689825744

_space_group_name_H-M_alt    "P 1"
_space_group_IT_number       1

loop_
  _space_group_symop_operation_xyz
  'x, y, z'

loop_
  _atom_site_type_symbol
  _atom_site_label
  _atom_site_symmetry_multiplicity
  _atom_site_fract_x
  _atom_site_fract_y
  _atom_site_fract_z
  _atom_site_occupancy
  Y   Y1        1.0  0.2500001900787104  0.2500000603187506  0.24999991680976455  1.0000
  Y   Y2        1.0  0.749999875836217  0.7500002030385194  0.7500000560756254  1.0000
  Bi  Bi1       1.0  2.02198223953564e-08  5.945227718957214e-08  0.9999999879025686  1.0000
  Cl  Cl1       1.0  0.26205826045297975  0.2620580164292117  0.7379418193398722  1.0000
  Cl  Cl2       1.0  0.737941786072151  0.7379418919130333  0.26205810358274356  1.0000
  Cl  Cl3       1.0  0.7379417164756653  0.26205817246933427  0.26205817951269095  1.0000
  Cl  Cl4       1.0  0.26205817366967127  0.7379417341742723  0.7379418723786509  1.0000
  Cl  Cl5       1.0  0.262058171553127  0.7379417852503387  0.2620581767171778  1.0000
  Cl  Cl6       1.0  0.7379417869067298  0.2620580942150845  0.7379418837315457  1.0000
