data_image0
_chemical_formula_structural       Y2BiI6
_chemical_formula_sum              "Y2 Bi1 I6"
_cell_length_a       8.068856765581785
_cell_length_b       8.068856871245703
_cell_length_c       8.068856790310459
_cell_angle_alpha    60.00000076302239
_cell_angle_beta     59.99999957634252
_cell_angle_gamma    59.9999996103216

_space_group_name_H-M_alt    "P 1"
_space_group_IT_number       1

loop_
  _space_group_symop_operation_xyz
  'x, y, z'

loop_
  _atom_site_type_symbol
  _atom_site_label
  _atom_site_symmetry_multiplicity
  _atom_site_fract_x
  _atom_site_fract_y
  _atom_site_fract_z
  _atom_site_occupancy
  Y   Y1        1.0  0.24999998383387945  0.24999999681767193  0.2500000600537911  1.0000
  Y   Y2        1.0  0.7500000365987652  0.7500000056316795  0.7499998449769022  1.0000
  Bi  Bi1       1.0  1.1376553300998989e-08  0.9999999787498668  0.9999999727141334  1.0000
  I   I1        1.0  0.2640703658236054  0.2640703684251576  0.7359296404905447  1.0000
  I   I2        1.0  0.7359296315384872  0.7359296431313946  0.264070396694451  1.0000
  I   I3        1.0  0.7359296265936178  0.26407033020326814  0.2640703927456364  1.0000
  I   I4        1.0  0.26407037010379675  0.7359296661746179  0.7359296511216987  1.0000
  I   I5        1.0  0.26407031200105224  0.735929639007508  0.26407040700213785  1.0000
  I   I6        1.0  0.7359296568266802  0.26407036799544475  0.7359296405301733  1.0000
