data_image0
_chemical_formula_structural       Y2BiI6
_chemical_formula_sum              "Y2 Bi1 I6"
_cell_length_a       8.068989593500014
_cell_length_b       8.068989491051761
_cell_length_c       8.068989595052498
_cell_angle_alpha    59.99999982204473
_cell_angle_beta     60.000000432875446
_cell_angle_gamma    59.99999984234256

_space_group_name_H-M_alt    "P 1"
_space_group_IT_number       1

loop_
  _space_group_symop_operation_xyz
  'x, y, z'

loop_
  _atom_site_type_symbol
  _atom_site_label
  _atom_site_symmetry_multiplicity
  _atom_site_fract_x
  _atom_site_fract_y
  _atom_site_fract_z
  _atom_site_occupancy
  Y   Y1        1.0  0.25000001765302754  0.2499998996339704  0.25000002313329933  1.0000
  Y   Y2        1.0  0.7499999553533919  0.7500000647017618  0.7499999861146325  1.0000
  Bi  Bi1       1.0  2.4168872663284464e-08  0.9999999833037413  0.9999999999816307  1.0000
  I   I1        1.0  0.2640678152997666  0.26406779749074366  0.7359321918722902  1.0000
  I   I2        1.0  0.7359321836091062  0.7359322093445565  0.2640678054822568  1.0000
  I   I3        1.0  0.7359321914190441  0.26406780821286385  0.2640678182281627  1.0000
  I   I4        1.0  0.2640678021848298  0.7359322016581197  0.7359321951327926  1.0000
  I   I5        1.0  0.2640677998441496  0.7359322238801626  0.26406779806555586  1.0000
  I   I6        1.0  0.7359322014059518  0.2640678102762881  0.7359321894150518  1.0000
