data_image0
_chemical_formula_structural       Y2BiF6
_chemical_formula_sum              "Y2 Bi1 F6"
_cell_length_a       5.872441021375616
_cell_length_b       5.8724390953613534
_cell_length_c       5.872441339737894
_cell_angle_alpha    59.99999711195359
_cell_angle_beta     59.99999713737236
_cell_angle_gamma    59.999998059705014

_space_group_name_H-M_alt    "P 1"
_space_group_IT_number       1

loop_
  _space_group_symop_operation_xyz
  'x, y, z'

loop_
  _atom_site_type_symbol
  _atom_site_label
  _atom_site_symmetry_multiplicity
  _atom_site_fract_x
  _atom_site_fract_y
  _atom_site_fract_z
  _atom_site_occupancy
  Y   Y1        1.0  0.2500029571407302  0.24999374681480413  0.25000006035108496  1.0000
  Y   Y2        1.0  0.7500011691879621  0.749997651883729  0.7499986566207386  1.0000
  Bi  Bi1       1.0  5.294270570760273e-07  0.9999991490827973  0.9999996924559518  1.0000
  F   F1        1.0  0.26869201992661856  0.26869256851545437  0.7313093769465424  1.0000
  F   F2        1.0  0.7313039254176428  0.7313108556452853  0.2686941798812864  1.0000
  F   F3        1.0  0.7313070727310799  0.2686934483802529  0.26869142667703383  1.0000
  F   F4        1.0  0.26869217269291307  0.7313084991885892  0.7313066802600915  1.0000
  F   F5        1.0  0.26869202221763316  0.7313108237259298  0.2686929517683884  1.0000
  F   F6        1.0  0.731308044588538  0.26869324905072545  0.7313070876124662  1.0000
