data_image0
_chemical_formula_structural       Y2BiCl6
_chemical_formula_sum              "Y2 Bi1 Cl6"
_cell_length_a       7.211109911968146
_cell_length_b       7.211108859073803
_cell_length_c       7.211109367901825
_cell_angle_alpha    60.00000181477441
_cell_angle_beta     60.000002948561864
_cell_angle_gamma    60.00000270988544

_space_group_name_H-M_alt    "P 1"
_space_group_IT_number       1

loop_
  _space_group_symop_operation_xyz
  'x, y, z'

loop_
  _atom_site_type_symbol
  _atom_site_label
  _atom_site_symmetry_multiplicity
  _atom_site_fract_x
  _atom_site_fract_y
  _atom_site_fract_z
  _atom_site_occupancy
  Y   Y1        1.0  0.2499998401937018  0.25000030484711605  0.24999999109598406  1.0000
  Y   Y2        1.0  0.7500001885567127  0.7500000058898383  0.7499995555671956  1.0000
  Bi  Bi1       1.0  0.9999999651437135  8.492069375825951e-09  2.704960051908244e-08  1.0000
  Cl  Cl1       1.0  0.2620444113300172  0.26204422019344087  0.7379557546593741  1.0000
  Cl  Cl2       1.0  0.7379555683554417  0.7379555844161481  0.26204454941516614  1.0000
  Cl  Cl3       1.0  0.7379556487477624  0.26204425668557096  0.2620444605769342  1.0000
  Cl  Cl4       1.0  0.26204443461568605  0.7379555971780203  0.7379555617927333  1.0000
  Cl  Cl5       1.0  0.2620442978474776  0.7379556214656935  0.2620444475165918  1.0000
  Cl  Cl6       1.0  0.7379556334886573  0.26204439544564384  0.73795566086831  1.0000
