data_image0
_chemical_formula_structural       Y2BiO6
_chemical_formula_sum              "Y2 Bi1 O6"
_cell_length_a       5.542971782358036
_cell_length_b       5.542971820762725
_cell_length_c       5.542971732463874
_cell_angle_alpha    60.000000316835546
_cell_angle_beta     59.99999936704365
_cell_angle_gamma    60.000000105616685

_space_group_name_H-M_alt    "P 1"
_space_group_IT_number       1

loop_
  _space_group_symop_operation_xyz
  'x, y, z'

loop_
  _atom_site_type_symbol
  _atom_site_label
  _atom_site_symmetry_multiplicity
  _atom_site_fract_x
  _atom_site_fract_y
  _atom_site_fract_z
  _atom_site_occupancy
  Y   Y1        1.0  0.24999993786305147  0.2500000311844782  0.2500000482781972  1.0000
  Y   Y2        1.0  0.7500000670655875  0.7499999830761576  0.7499999668939137  1.0000
  Bi  Bi1       1.0  1.7753608604558893e-07  0.9999998298649931  0.9999996625434727  1.0000
  O   O1        1.0  0.2632343436676585  0.2632342417328316  0.7367656991734154  1.0000
  O   O2        1.0  0.7367656302046964  0.736765653212345  0.2632343298456295  1.0000
  O   O3        1.0  0.7367655982801331  0.26323445103862253  0.2632343599181014  1.0000
  O   O4        1.0  0.2632340717763032  0.7367659366352095  0.7367659246373409  1.0000
  O   O5        1.0  0.2632344298692533  0.736765606875479  0.26323429301229445  1.0000
  O   O6        1.0  0.7367657181273021  0.2632342969078797  0.7367657004522367  1.0000
