data_image0
_chemical_formula_structural       Y2CBr6
_chemical_formula_sum              "Y2 C1 Br6"
_cell_length_a       7.153338335833147
_cell_length_b       7.153338526574554
_cell_length_c       7.15333837327074
_cell_angle_alpha    60.000000329517725
_cell_angle_beta     59.999999278213
_cell_angle_gamma    60.00000211054447

_space_group_name_H-M_alt    "P 1"
_space_group_IT_number       1

loop_
  _space_group_symop_operation_xyz
  'x, y, z'

loop_
  _atom_site_type_symbol
  _atom_site_label
  _atom_site_symmetry_multiplicity
  _atom_site_fract_x
  _atom_site_fract_y
  _atom_site_fract_z
  _atom_site_occupancy
  Y   Y1        1.0  0.2500000543434373  0.24999983520506203  0.2500000958810819  1.0000
  Y   Y2        1.0  0.7500000015361508  0.7499999610418768  0.7499999519539072  1.0000
  C   C1        1.0  0.9999999720688031  2.568195591427229e-08  0.999999985747185  1.0000
  Br  Br1       1.0  0.256263269043293  0.2562632524598195  0.7437366433312312  1.0000
  Br  Br2       1.0  0.7437366642651382  0.743736848546333  0.25626327566511464  1.0000
  Br  Br3       1.0  0.7437366975005966  0.256263227740471  0.25626334695499164  1.0000
  Br  Br4       1.0  0.256263273913895  0.7437368219017694  0.7437366303943815  1.0000
  Br  Br5       1.0  0.2562632955531878  0.7437367699117732  0.25626330682347725  1.0000
  Br  Br6       1.0  0.7437367601920062  0.2562632591849033  0.7437367602548624  1.0000
