data_image0
_chemical_formula_structural       Y2CCl6
_chemical_formula_sum              "Y2 C1 Cl6"
_cell_length_a       6.764402035750746
_cell_length_b       6.764402340071175
_cell_length_c       6.764402095791388
_cell_angle_alpha    60.00000290668527
_cell_angle_beta     60.00000300744797
_cell_angle_gamma    60.00000316022573

_space_group_name_H-M_alt    "P 1"
_space_group_IT_number       1

loop_
  _space_group_symop_operation_xyz
  'x, y, z'

loop_
  _atom_site_type_symbol
  _atom_site_label
  _atom_site_symmetry_multiplicity
  _atom_site_fract_x
  _atom_site_fract_y
  _atom_site_fract_z
  _atom_site_occupancy
  Y   Y1        1.0  0.2499999442485248  0.25000015032523193  0.2500000083240773  1.0000
  Y   Y2        1.0  0.7500004469731337  0.7499999295305  0.7499994818631004  1.0000
  C   C1        1.0  0.9999999466680248  2.1726883000663656e-08  3.502079938706134e-08  1.0000
  Cl  Cl1       1.0  0.25853774568666194  0.25853800053459053  0.7414621195668144  1.0000
  Cl  Cl2       1.0  0.7414621953300704  0.7414619960347567  0.2585380631242567  1.0000
  Cl  Cl3       1.0  0.7414620480020296  0.2585378167083006  0.25853798941441314  1.0000
  Cl  Cl4       1.0  0.2585378487711226  0.7414621128698227  0.741462151324459  1.0000
  Cl  Cl5       1.0  0.2585377392479125  0.7414620859833754  0.2585380092679755  1.0000
  Cl  Cl6       1.0  0.7414620749667383  0.2585378761850724  0.7414621608899655  1.0000
