data_image0
_chemical_formula_structural       Y2CF6
_chemical_formula_sum              "Y2 C1 F6"
_cell_length_a       5.342091104061211
_cell_length_b       5.342091628830729
_cell_length_c       5.3420919295394755
_cell_angle_alpha    59.9999965076192
_cell_angle_beta     59.99999570169726
_cell_angle_gamma    59.99999381547476

_space_group_name_H-M_alt    "P 1"
_space_group_IT_number       1

loop_
  _space_group_symop_operation_xyz
  'x, y, z'

loop_
  _atom_site_type_symbol
  _atom_site_label
  _atom_site_symmetry_multiplicity
  _atom_site_fract_x
  _atom_site_fract_y
  _atom_site_fract_z
  _atom_site_occupancy
  Y   Y1        1.0  0.24999958282866633  0.250000489550447  0.24999989772844605  1.0000
  Y   Y2        1.0  0.7499995694237551  0.7500002443859093  0.7499995429271353  1.0000
  C   C1        1.0  1.2897163907883874e-07  0.9999999243431424  0.9999999658549076  1.0000
  F   F1        1.0  0.2654854056854953  0.26548505525945476  0.7345148372357264  1.0000
  F   F2        1.0  0.73451489821252  0.7345146813819721  0.26548544910398825  1.0000
  F   F3        1.0  0.7345151036783684  0.26548501812992387  0.2654853014931976  1.0000
  F   F4        1.0  0.2654851997401682  0.7345146680736043  0.7345149522755051  1.0000
  F   F5        1.0  0.26548512490886117  0.7345146346234405  0.26548535229420805  1.0000
  F   F6        1.0  0.7345149388849548  0.2654851868453835  0.7345147552300632  1.0000
