data_image0
_chemical_formula_structural       Y2CI6
_chemical_formula_sum              "Y2 C1 I6"
_cell_length_a       7.658556485022999
_cell_length_b       7.658556521723135
_cell_length_c       7.658556536821685
_cell_angle_alpha    60.00000000203901
_cell_angle_beta     60.00000001095609
_cell_angle_gamma    60.0000014720141

_space_group_name_H-M_alt    "P 1"
_space_group_IT_number       1

loop_
  _space_group_symop_operation_xyz
  'x, y, z'

loop_
  _atom_site_type_symbol
  _atom_site_label
  _atom_site_symmetry_multiplicity
  _atom_site_fract_x
  _atom_site_fract_y
  _atom_site_fract_z
  _atom_site_occupancy
  Y   Y1        1.0  0.250000072516891  0.24999998902543993  0.24999996217244974  1.0000
  Y   Y2        1.0  0.7499999503173219  0.7499999862665355  0.7499999308894424  1.0000
  C   C1        1.0  1.8625774633525546e-08  0.9999999984008153  2.282420304585609e-08  1.0000
  I   I1        1.0  0.2538846377862404  0.2538845405007008  0.7461154157680716  1.0000
  I   I2        1.0  0.7461153539030954  0.7461154603782341  0.25388463806599837  1.0000
  I   I3        1.0  0.7461153691418875  0.2538846122544834  0.2538846406111317  1.0000
  I   I4        1.0  0.2538846638805729  0.746115382227712  0.746115382697455  1.0000
  I   I5        1.0  0.2538845719738295  0.7461153694954785  0.2538846612575235  1.0000
  I   I6        1.0  0.7461153629392855  0.25388465697041523  0.7461153572477431  1.0000
