data_image0
_chemical_formula_structural       Y2CoO6
_chemical_formula_sum              "Y2 Co1 O6"
_cell_length_a       5.16396508582066
_cell_length_b       5.163964704875547
_cell_length_c       5.163965000605413
_cell_angle_alpha    59.999999862009226
_cell_angle_beta     59.99999988356869
_cell_angle_gamma    60.00000026875461

_space_group_name_H-M_alt    "P 1"
_space_group_IT_number       1

loop_
  _space_group_symop_operation_xyz
  'x, y, z'

loop_
  _atom_site_type_symbol
  _atom_site_label
  _atom_site_symmetry_multiplicity
  _atom_site_fract_x
  _atom_site_fract_y
  _atom_site_fract_z
  _atom_site_occupancy
  Y   Y1        1.0  0.25000005035700495  0.24999992164840407  0.250000048926298  1.0000
  Y   Y2        1.0  0.7499999899340908  0.7500000068600621  0.74999999407314  1.0000
  Co  Co1       1.0  0.9999999922299269  1.660199978211852e-08  0.9999999975205334  1.0000
  O   O1        1.0  0.24874640496258207  0.2487464462664615  0.7512536014995123  1.0000
  O   O2        1.0  0.7512535336859043  0.7512536530054307  0.24874642824098125  1.0000
  O   O3        1.0  0.7512535829371151  0.24874646147861826  0.24874638238228255  1.0000
  O   O4        1.0  0.24874641019097973  0.7512535951024163  0.7512535659404723  1.0000
  O   O5        1.0  0.24874645328166645  0.7512534557667007  0.24874642245812764  1.0000
  O   O6        1.0  0.7512535678342537  0.24874642293576388  0.7512535775720395  1.0000
