data_image0
_chemical_formula_structural       Y2CoBr6
_chemical_formula_sum              "Y2 Co1 Br6"
_cell_length_a       6.967379679367571
_cell_length_b       6.967379584062337
_cell_length_c       6.967379482698024
_cell_angle_alpha    59.99999757313535
_cell_angle_beta     60.000000160468346
_cell_angle_gamma    59.99999970833444

_space_group_name_H-M_alt    "P 1"
_space_group_IT_number       1

loop_
  _space_group_symop_operation_xyz
  'x, y, z'

loop_
  _atom_site_type_symbol
  _atom_site_label
  _atom_site_symmetry_multiplicity
  _atom_site_fract_x
  _atom_site_fract_y
  _atom_site_fract_z
  _atom_site_occupancy
  Y   Y1        1.0  0.2500002972378355  0.2500003878353805  0.2499996216090208  1.0000
  Y   Y2        1.0  0.7500000097687989  0.7499999312693073  0.7499995300919277  1.0000
  Co  Co1       1.0  0.9999999231784759  1.7578238053926038e-09  1.1647114208101536e-07  1.0000
  Br  Br1       1.0  0.24569153307418157  0.24569161144867485  0.754308447785596  1.0000
  Br  Br2       1.0  0.7543084254382072  0.7543083262074957  0.24569176068199003  1.0000
  Br  Br3       1.0  0.7543083151116133  0.24569152008479142  0.24569169781695566  1.0000
  Br  Br4       1.0  0.24569170197776316  0.754308271671728  0.7543084854194924  1.0000
  Br  Br5       1.0  0.24569149736743265  0.7543083256253991  0.24569172585314214  1.0000
  Br  Br6       1.0  0.7543083022284265  0.24569163136686642  0.7543086083797956  1.0000
