data_image0
_chemical_formula_structural       Y2CoF6
_chemical_formula_sum              "Y2 Co1 F6"
_cell_length_a       5.292586041169054
_cell_length_b       5.292587287619706
_cell_length_c       5.29258643476831
_cell_angle_alpha    60.000000338538605
_cell_angle_beta     59.99999962159664
_cell_angle_gamma    60.00000176579305

_space_group_name_H-M_alt    "P 1"
_space_group_IT_number       1

loop_
  _space_group_symop_operation_xyz
  'x, y, z'

loop_
  _atom_site_type_symbol
  _atom_site_label
  _atom_site_symmetry_multiplicity
  _atom_site_fract_x
  _atom_site_fract_y
  _atom_site_fract_z
  _atom_site_occupancy
  Y   Y1        1.0  0.2500000097698423  0.2500001017871474  0.24999988631294848  1.0000
  Y   Y2        1.0  0.7500000989095608  0.7500000114738059  0.7499998013136248  1.0000
  Co  Co1       1.0  6.280508766070054e-09  1.3884455402684684e-08  0.999999982359776  1.0000
  F   F1        1.0  0.2535971768618019  0.25359717309600005  0.746402911124764  1.0000
  F   F2        1.0  0.7464028196494537  0.7464027203277245  0.2535973487331082  1.0000
  F   F3        1.0  0.7464028472736307  0.25359715566166297  0.2535970933877442  1.0000
  F   F4        1.0  0.25359716860851894  0.7464027516465285  0.7464029590094751  1.0000
  F   F5        1.0  0.25359703306468584  0.7464028065516503  0.25359724506358083  1.0000
  F   F6        1.0  0.7464028475688914  0.2535972905107604  0.7464028348744313  1.0000
