data_image0
_chemical_formula_structural       Y2CoSe6
_chemical_formula_sum              "Y2 Co1 Se6"
_cell_length_a       6.509372407599132
_cell_length_b       6.509372199937281
_cell_length_c       6.50937219869366
_cell_angle_alpha    60.000000294324494
_cell_angle_beta     60.00000079178905
_cell_angle_gamma    60.00000085548857

_space_group_name_H-M_alt    "P 1"
_space_group_IT_number       1

loop_
  _space_group_symop_operation_xyz
  'x, y, z'

loop_
  _atom_site_type_symbol
  _atom_site_label
  _atom_site_symmetry_multiplicity
  _atom_site_fract_x
  _atom_site_fract_y
  _atom_site_fract_z
  _atom_site_occupancy
  Y   Y1        1.0  0.2500000316505284  0.24999996206010067  0.2499999725544194  1.0000
  Y   Y2        1.0  0.7500000003966175  0.7499999144029508  0.7500000368592198  1.0000
  Co  Co1       1.0  0.9999999880837706  3.5748689358125896e-08  1.266371351785124e-08  1.0000
  Se  Se1       1.0  0.2514227051461771  0.2514227865180066  0.748577248258124  1.0000
  Se  Se2       1.0  0.748577250315552  0.7485772611624512  0.25142273534697124  1.0000
  Se  Se3       1.0  0.7485772708777227  0.25142278791203254  0.25142269530455447  1.0000
  Se  Se4       1.0  0.2514227817367964  0.7485772503608767  0.7485772690078633  1.0000
  Se  Se5       1.0  0.2514227399705801  0.7485772519938142  0.251422729276946  1.0000
  Se  Se6       1.0  0.7485772268878136  0.2514227561749346  0.7485773021830937  1.0000
