data_image0
_chemical_formula_structural       Y2CoCl6
_chemical_formula_sum              "Y2 Co1 Cl6"
_cell_length_a       6.629190897979218
_cell_length_b       6.629191298241438
_cell_length_c       6.629191147531471
_cell_angle_alpha    59.99999822508764
_cell_angle_beta     59.99999728491512
_cell_angle_gamma    59.99999728267639

_space_group_name_H-M_alt    "P 1"
_space_group_IT_number       1

loop_
  _space_group_symop_operation_xyz
  'x, y, z'

loop_
  _atom_site_type_symbol
  _atom_site_label
  _atom_site_symmetry_multiplicity
  _atom_site_fract_x
  _atom_site_fract_y
  _atom_site_fract_z
  _atom_site_occupancy
  Y   Y1        1.0  0.2499998986975325  0.2500001788862643  0.2500004508869321  1.0000
  Y   Y2        1.0  0.7499999394859581  0.7499999214404127  0.7500001945179392  1.0000
  Co  Co1       1.0  1.5078876817054045e-08  0.9999999704399594  0.9999998684604537  1.0000
  Cl  Cl1       1.0  0.24473374105075943  0.24473358940392873  0.7552662402608809  1.0000
  Cl  Cl2       1.0  0.7552663541707708  0.7552663982250929  0.24473358024244798  1.0000
  Cl  Cl3       1.0  0.7552662408351327  0.24473368131251305  0.24473354464786182  1.0000
  Cl  Cl4       1.0  0.24473367791388376  0.7552663654366  0.7552663496164755  1.0000
  Cl  Cl5       1.0  0.24473369593917962  0.7552662922407674  0.244733534705528  1.0000
  Cl  Cl6       1.0  0.7552664375516089  0.24473360670812408  0.755266253681011  1.0000
