data_image0
_chemical_formula_structural       Y2CoS6
_chemical_formula_sum              "Y2 Co1 S6"
_cell_length_a       6.169157273528251
_cell_length_b       6.169157504255383
_cell_length_c       6.169157489921843
_cell_angle_alpha    60.00000218247617
_cell_angle_beta     60.00000058775992
_cell_angle_gamma    60.00000254721122

_space_group_name_H-M_alt    "P 1"
_space_group_IT_number       1

loop_
  _space_group_symop_operation_xyz
  'x, y, z'

loop_
  _atom_site_type_symbol
  _atom_site_label
  _atom_site_symmetry_multiplicity
  _atom_site_fract_x
  _atom_site_fract_y
  _atom_site_fract_z
  _atom_site_occupancy
  Y   Y1        1.0  0.25000012039088115  0.24999993092247652  0.24999995812672873  1.0000
  Y   Y2        1.0  0.7500000503678378  0.7499999615154475  0.7500000313198236  1.0000
  Co  Co1       1.0  0.9999999802803112  1.9852708123685318e-08  9.659291694816692e-09  1.0000
  S   S1        1.0  0.24984450228427413  0.24984452461302672  0.7501554711470463  1.0000
  S   S2        1.0  0.7501554521450431  0.7501555226760181  0.24984451661930834  1.0000
  S   S3        1.0  0.7501554875309041  0.24984452845856142  0.24984447615460914  1.0000
  S   S4        1.0  0.2498444562357212  0.750155489051421  0.7501555172439199  1.0000
  S   S5        1.0  0.24984451138785796  0.7501555161488177  0.24984449442640094  1.0000
  S   S6        1.0  0.7501554544048662  0.24984449143481166  0.7501555318254609  1.0000
