data_image0
_chemical_formula_structural       Y2CO6
_chemical_formula_sum              "Y2 C1 O6"
_cell_length_a       4.859156151592374
_cell_length_b       4.859156341263741
_cell_length_c       4.859155988508558
_cell_angle_alpha    59.999998920080124
_cell_angle_beta     60.00000060716113
_cell_angle_gamma    59.999997468777195

_space_group_name_H-M_alt    "P 1"
_space_group_IT_number       1

loop_
  _space_group_symop_operation_xyz
  'x, y, z'

loop_
  _atom_site_type_symbol
  _atom_site_label
  _atom_site_symmetry_multiplicity
  _atom_site_fract_x
  _atom_site_fract_y
  _atom_site_fract_z
  _atom_site_occupancy
  Y   Y1        1.0  0.25000000330852795  0.2499999869714335  0.25000001909407515  1.0000
  Y   Y2        1.0  0.7500000110045794  0.7500000289674977  0.7500000021364216  1.0000
  C   C1        1.0  1.016102572942196e-07  0.9999997807174715  1.452709047593383e-07  1.0000
  O   O1        1.0  0.22833897534303782  0.22833895147205147  0.7716610115018186  1.0000
  O   O2        1.0  0.77166110997196  0.7716610795898124  0.22833890081120772  1.0000
  O   O3        1.0  0.7716609671013736  0.22833896749692217  0.22833897981872472  1.0000
  O   O4        1.0  0.22833895703024298  0.7716610837288572  0.771660996830123  1.0000
  O   O5        1.0  0.22833886992873895  0.7716611394254697  0.2283389096316614  1.0000
  O   O6        1.0  0.7716610092912564  0.22833898237399855  0.7716609924470337  1.0000
