data_image0
_chemical_formula_structural       Y2CoI6
_chemical_formula_sum              "Y2 Co1 I6"
_cell_length_a       7.630870142267735
_cell_length_b       7.630870217589078
_cell_length_c       7.630870257185628
_cell_angle_alpha    59.99999992528547
_cell_angle_beta     59.999999948876486
_cell_angle_gamma    59.99999973217121

_space_group_name_H-M_alt    "P 1"
_space_group_IT_number       1

loop_
  _space_group_symop_operation_xyz
  'x, y, z'

loop_
  _atom_site_type_symbol
  _atom_site_label
  _atom_site_symmetry_multiplicity
  _atom_site_fract_x
  _atom_site_fract_y
  _atom_site_fract_z
  _atom_site_occupancy
  Y   Y1        1.0  0.24999994377426457  0.2499999072930745  0.2500000665052528  1.0000
  Y   Y2        1.0  0.7500000218595527  0.7499999401574765  0.7500000383536485  1.0000
  Co  Co1       1.0  1.5289452230739731e-09  0.9999999727152182  7.63605215865248e-09  1.0000
  I   I1        1.0  0.24645202133304947  0.2464520764741218  0.7535479603412226  1.0000
  I   I2        1.0  0.7535479791461277  0.7535480069095416  0.24645200781797616  1.0000
  I   I3        1.0  0.7535479685897509  0.24645206477948395  0.24645201811984757  1.0000
  I   I4        1.0  0.24645205897487799  0.7535479736645389  0.7535479524141131  1.0000
  I   I5        1.0  0.2464520466094268  0.7535479948287465  0.24645199963896514  1.0000
  I   I6        1.0  0.7535479588682933  0.2464520644801096  0.7535479479176361  1.0000
