data_image0
_chemical_formula_structural       Y2CrSe6
_chemical_formula_sum              "Y2 Cr1 Se6"
_cell_length_a       6.550451697546008
_cell_length_b       6.55045177010918
_cell_length_c       6.550451673964229
_cell_angle_alpha    59.9999994486065
_cell_angle_beta     59.9999994129354
_cell_angle_gamma    59.99999817625498

_space_group_name_H-M_alt    "P 1"
_space_group_IT_number       1

loop_
  _space_group_symop_operation_xyz
  'x, y, z'

loop_
  _atom_site_type_symbol
  _atom_site_label
  _atom_site_symmetry_multiplicity
  _atom_site_fract_x
  _atom_site_fract_y
  _atom_site_fract_z
  _atom_site_occupancy
  Y   Y1        1.0  0.25000008026954496  0.24999998247258015  0.24999997342938654  1.0000
  Y   Y2        1.0  0.7499999754292532  0.7499999978999303  0.7500000246835319  1.0000
  Cr  Cr1       1.0  1.5330367290858912e-08  2.8045658113300244e-08  0.9999999767853747  1.0000
  Se  Se1       1.0  0.25545061552052106  0.2554506477957953  0.7445493765844271  1.0000
  Se  Se2       1.0  0.7445493308675678  0.7445493643617968  0.25545064349857044  1.0000
  Se  Se3       1.0  0.7445493487644478  0.2554506540492567  0.25545061744553305  1.0000
  Se  Se4       1.0  0.25545064025115377  0.7445493412809399  0.7445493698914459  1.0000
  Se  Se5       1.0  0.25545062554790166  0.7445493588130909  0.25545064682180707  1.0000
  Se  Se6       1.0  0.7445493712489876  0.255450629038263  0.7445493770026446  1.0000
