data_image0
_chemical_formula_structural       Y2CrS6
_chemical_formula_sum              "Y2 Cr1 S6"
_cell_length_a       6.231611712218749
_cell_length_b       6.231612064862895
_cell_length_c       6.2316119787001885
_cell_angle_alpha    59.999997476894784
_cell_angle_beta     59.999999712219896
_cell_angle_gamma    59.999998391407594

_space_group_name_H-M_alt    "P 1"
_space_group_IT_number       1

loop_
  _space_group_symop_operation_xyz
  'x, y, z'

loop_
  _atom_site_type_symbol
  _atom_site_label
  _atom_site_symmetry_multiplicity
  _atom_site_fract_x
  _atom_site_fract_y
  _atom_site_fract_z
  _atom_site_occupancy
  Y   Y1        1.0  0.25000001279571993  0.2500000279288652  0.24999996821608667  1.0000
  Y   Y2        1.0  0.7500000000207648  0.7499998931453126  0.7499998811460779  1.0000
  Cr  Cr1       1.0  0.9999999633708704  9.826871074447279e-09  1.3401128746350836e-08  1.0000
  S   S1        1.0  0.25365819190596733  0.25365818524003986  0.7463418177103535  1.0000
  S   S2        1.0  0.7463418109519658  0.7463418046222224  0.2536582525735539  1.0000
  S   S3        1.0  0.7463417905254869  0.25365821326405646  0.25365817516339034  1.0000
  S   S4        1.0  0.253658245910755  0.7463417648059614  0.7463418649708307  1.0000
  S   S5        1.0  0.25365818499199205  0.7463418307193214  0.25365818279416763  1.0000
  S   S6        1.0  0.746341770491442  0.25365827903076266  0.7463418464189113  1.0000
