data_image0
_chemical_formula_structural       Y2CrO6
_chemical_formula_sum              "Y2 Cr1 O6"
_cell_length_a       5.220227752380844
_cell_length_b       5.220228029544846
_cell_length_c       5.220227658131229
_cell_angle_alpha    59.99999970065465
_cell_angle_beta     60.00000047700424
_cell_angle_gamma    60.00000023896236

_space_group_name_H-M_alt    "P 1"
_space_group_IT_number       1

loop_
  _space_group_symop_operation_xyz
  'x, y, z'

loop_
  _atom_site_type_symbol
  _atom_site_label
  _atom_site_symmetry_multiplicity
  _atom_site_fract_x
  _atom_site_fract_y
  _atom_site_fract_z
  _atom_site_occupancy
  Y   Y1        1.0  0.2500001206510645  0.2500000856417259  0.24999987263678225  1.0000
  Y   Y2        1.0  0.7499999755096542  0.7500000293484297  0.7499999689798763  1.0000
  Cr  Cr1       1.0  0.9999999604528343  0.9999999859230888  0.9999999980776597  1.0000
  O   O1        1.0  0.24647559959224172  0.2464755146638952  0.753524432317348  1.0000
  O   O2        1.0  0.7535244235773002  0.7535243680572058  0.24647562514506477  1.0000
  O   O3        1.0  0.7535244207478888  0.24647557755623178  0.24647557736017195  1.0000
  O   O4        1.0  0.24647560197307522  0.7535244060494073  0.7535244356311346  1.0000
  O   O5        1.0  0.2464755460579117  0.7535244163758621  0.24647560091501797  1.0000
  O   O6        1.0  0.7535243616174108  0.24647560711436145  0.7535244898849469  1.0000
