data_image0
_chemical_formula_structural       Y2CrF6
_chemical_formula_sum              "Y2 Cr1 F6"
_cell_length_a       5.58721052028927
_cell_length_b       5.587210267986045
_cell_length_c       5.587207179032786
_cell_angle_alpha    60.00001385566341
_cell_angle_beta     59.99999513539326
_cell_angle_gamma    60.00001531914231

_space_group_name_H-M_alt    "P 1"
_space_group_IT_number       1

loop_
  _space_group_symop_operation_xyz
  'x, y, z'

loop_
  _atom_site_type_symbol
  _atom_site_label
  _atom_site_symmetry_multiplicity
  _atom_site_fract_x
  _atom_site_fract_y
  _atom_site_fract_z
  _atom_site_occupancy
  Y   Y1        1.0  0.24998897126534622  0.2500166625834065  0.2499953026221035  1.0000
  Y   Y2        1.0  0.7499875866877697  0.7500110766667629  0.7500018711661816  1.0000
  Cr  Cr1       1.0  0.9999988400268838  1.1858991119498348e-06  0.999999840273335  1.0000
  F   F1        1.0  0.26098966267990764  0.26097722864803635  0.7390172434996627  1.0000
  F   F2        1.0  0.7390238628950555  0.739009054549804  0.2609835884427119  1.0000
  F   F3        1.0  0.7390189671807562  0.2609821452404409  0.26098428394196554  1.0000
  F   F4        1.0  0.2609869509297293  0.7390100279960933  0.7390223752075639  1.0000
  F   F5        1.0  0.2609876723056644  0.7390121074807906  0.26097978095425967  1.0000
  F   F6        1.0  0.7390175854678155  0.2609802301589552  0.739015664264068  1.0000
