data_image0
_chemical_formula_structural       Y2CrCl6
_chemical_formula_sum              "Y2 Cr1 Cl6"
_cell_length_a       6.853375755733066
_cell_length_b       6.853375504538165
_cell_length_c       6.853375403858887
_cell_angle_alpha    60.000000728965574
_cell_angle_beta     60.00000150691305
_cell_angle_gamma    60.00000081426391

_space_group_name_H-M_alt    "P 1"
_space_group_IT_number       1

loop_
  _space_group_symop_operation_xyz
  'x, y, z'

loop_
  _atom_site_type_symbol
  _atom_site_label
  _atom_site_symmetry_multiplicity
  _atom_site_fract_x
  _atom_site_fract_y
  _atom_site_fract_z
  _atom_site_occupancy
  Y   Y1        1.0  0.2500004522227772  0.2499995923570087  0.24999957626375377  1.0000
  Y   Y2        1.0  0.7500001673668293  0.7500002978659608  0.7499995100231723  1.0000
  Cr  Cr1       1.0  0.999999979150873  6.254738276058943e-08  0.9999999485090371  1.0000
  Cl  Cl1       1.0  0.24117775825091933  0.24117776099560576  0.7588223712296992  1.0000
  Cl  Cl2       1.0  0.7588220946204112  0.7588223115083048  0.24117791048046813  1.0000
  Cl  Cl3       1.0  0.7588221786980509  0.24117763614943757  0.24117802260016058  1.0000
  Cl  Cl4       1.0  0.24117779075604462  0.7588222129709631  0.7588222541449783  1.0000
  Cl  Cl5       1.0  0.24117755180790373  0.758822397025437  0.24117799962201558  1.0000
  Cl  Cl6       1.0  0.7588220255954474  0.24117774874826278  0.7588223977785977  1.0000
