data_image0
_chemical_formula_structural       Y2CrI6
_chemical_formula_sum              "Y2 Cr1 I6"
_cell_length_a       7.765336601226404
_cell_length_b       7.765336488815687
_cell_length_c       7.765336533976347
_cell_angle_alpha    59.99999951960856
_cell_angle_beta     60.000000030955746
_cell_angle_gamma    60.000000043827974

_space_group_name_H-M_alt    "P 1"
_space_group_IT_number       1

loop_
  _space_group_symop_operation_xyz
  'x, y, z'

loop_
  _atom_site_type_symbol
  _atom_site_label
  _atom_site_symmetry_multiplicity
  _atom_site_fract_x
  _atom_site_fract_y
  _atom_site_fract_z
  _atom_site_occupancy
  Y   Y1        1.0  0.2499999554113344  0.24999998695086761  0.2500000990073941  1.0000
  Y   Y2        1.0  0.7499999523429994  0.7500000460211261  0.7499999602674544  1.0000
  Cr  Cr1       1.0  2.8417803717998043e-08  1.7349143629446523e-08  0.9999999655265585  1.0000
  I   I1        1.0  0.24826606758003295  0.2482660083011453  0.7517339309087225  1.0000
  I   I2        1.0  0.7517339246340322  0.7517339363479371  0.24826607878674836  1.0000
  I   I3        1.0  0.7517339730505975  0.24826605284518324  0.24826602151275426  1.0000
  I   I4        1.0  0.2482660408962106  0.7517339738180318  0.7517339697914077  1.0000
  I   I5        1.0  0.24826606624544714  0.7517339150422994  0.2482660179376789  1.0000
  I   I6        1.0  0.7517339891877298  0.24826606745945987  0.7517339566751878  1.0000
