data_image0
_chemical_formula_structural       Y2CrBr6
_chemical_formula_sum              "Y2 Cr1 Br6"
_cell_length_a       7.073842197254988
_cell_length_b       7.0738427714187
_cell_length_c       7.073842211304479
_cell_angle_alpha    59.99999541012965
_cell_angle_beta     59.99998956562558
_cell_angle_gamma    59.999995553507

_space_group_name_H-M_alt    "P 1"
_space_group_IT_number       1

loop_
  _space_group_symop_operation_xyz
  'x, y, z'

loop_
  _atom_site_type_symbol
  _atom_site_label
  _atom_site_symmetry_multiplicity
  _atom_site_fract_x
  _atom_site_fract_y
  _atom_site_fract_z
  _atom_site_occupancy
  Y   Y1        1.0  0.24999956785378222  0.2500001697208617  0.24999982436639817  1.0000
  Y   Y2        1.0  0.750000228125438  0.7499997698669185  0.750000098299311  1.0000
  Cr  Cr1       1.0  1.346620445358706e-07  0.999999929013756  2.8482168669330823e-07  1.0000
  Br  Br1       1.0  0.24198290206457923  0.2419827978186362  0.7580171488284112  1.0000
  Br  Br2       1.0  0.7580171985874824  0.7580171435004984  0.24198287650743727  1.0000
  Br  Br3       1.0  0.7580173547736314  0.24198287644097682  0.24198276721278567  1.0000
  Br  Br4       1.0  0.24198287274084454  0.7580170319821019  0.7580171305613179  1.0000
  Br  Br5       1.0  0.24198273267060613  0.7580172270734998  0.2419828672055398  1.0000
  Br  Br6       1.0  0.7580170301776251  0.24198305186307423  0.7580169871707849  1.0000
