data_image0
_chemical_formula_structural       Y2CrTe6
_chemical_formula_sum              "Y2 Cr1 Te6"
_cell_length_a       7.111813731272546
_cell_length_b       7.111813542675809
_cell_length_c       7.111813628210234
_cell_angle_alpha    60.00000004202916
_cell_angle_beta     60.000000365517714
_cell_angle_gamma    59.99999968416387

_space_group_name_H-M_alt    "P 1"
_space_group_IT_number       1

loop_
  _space_group_symop_operation_xyz
  'x, y, z'

loop_
  _atom_site_type_symbol
  _atom_site_label
  _atom_site_symmetry_multiplicity
  _atom_site_fract_x
  _atom_site_fract_y
  _atom_site_fract_z
  _atom_site_occupancy
  Y   Y1        1.0  0.25000004451506086  0.2500000775847113  0.2499999305521926  1.0000
  Y   Y2        1.0  0.7499999658885952  0.7499999709907738  0.7500000162093285  1.0000
  Cr  Cr1       1.0  0.9999999947520263  0.9999999913893631  5.523194178079928e-09  1.0000
  Te  Te1       1.0  0.25479227150869266  0.2547921855756339  0.7452077568700531  1.0000
  Te  Te2       1.0  0.7452077288914667  0.7452078199466667  0.2547922051709197  1.0000
  Te  Te3       1.0  0.7452077804325588  0.25479223958253777  0.2547922317590907  1.0000
  Te  Te4       1.0  0.254792207290872  0.7452077211644516  0.7452078391562339  1.0000
  Te  Te5       1.0  0.254792224466089  0.7452077736160073  0.254792227904615  1.0000
  Te  Te6       1.0  0.7452077770821551  0.2547922284620389  0.7452077929349971  1.0000
