data_image0
_chemical_formula_structural       Y2CS6
_chemical_formula_sum              "Y2 C1 S6"
_cell_length_a       6.106818057376024
_cell_length_b       6.106818376026107
_cell_length_c       6.106818627339434
_cell_angle_alpha    59.99999532438166
_cell_angle_beta     59.99999719436883
_cell_angle_gamma    59.99999854548711

_space_group_name_H-M_alt    "P 1"
_space_group_IT_number       1

loop_
  _space_group_symop_operation_xyz
  'x, y, z'

loop_
  _atom_site_type_symbol
  _atom_site_label
  _atom_site_symmetry_multiplicity
  _atom_site_fract_x
  _atom_site_fract_y
  _atom_site_fract_z
  _atom_site_occupancy
  Y   Y1        1.0  0.2500000177535141  0.2499999179164017  0.25000002910959535  1.0000
  Y   Y2        1.0  0.7500000976083777  0.7499998078986967  0.750000121593327  1.0000
  C   C1        1.0  1.4089073407650219e-06  0.9999997894186121  1.1806809229743058e-07  1.0000
  S   S1        1.0  0.2328848298471837  0.23288477548068512  0.7671152186346539  1.0000
  S   S2        1.0  0.7671146190287709  0.7671146013710025  0.23288536937985474  1.0000
  S   S3        1.0  0.7671148675374978  0.23288520791280493  0.23288515790138611  1.0000
  S   S4        1.0  0.2328851513848939  0.7671149149985853  0.7671148850484899  1.0000
  S   S5        1.0  0.2328845462953088  0.7671154550733513  0.23288457454316663  1.0000
  S   S6        1.0  0.7671144706592972  0.23288551818569372  0.7671144831077853  1.0000
