data_image0
_chemical_formula_structural       Y2FeI6
_chemical_formula_sum              "Y2 Fe1 I6"
_cell_length_a       7.647370251816967
_cell_length_b       7.647370379538567
_cell_length_c       7.647370400932618
_cell_angle_alpha    59.99999997233113
_cell_angle_beta     60.00000003814493
_cell_angle_gamma    59.99999972887683

_space_group_name_H-M_alt    "P 1"
_space_group_IT_number       1

loop_
  _space_group_symop_operation_xyz
  'x, y, z'

loop_
  _atom_site_type_symbol
  _atom_site_label
  _atom_site_symmetry_multiplicity
  _atom_site_fract_x
  _atom_site_fract_y
  _atom_site_fract_z
  _atom_site_occupancy
  Y   Y1        1.0  0.24999995633738503  0.25000003414093  0.249999962961103  1.0000
  Y   Y2        1.0  0.7499999351011826  0.7499999358642728  0.7499999718090299  1.0000
  Fe  Fe1       1.0  0.9999999871119281  1.6015242121866808e-08  0.9999999670530781  1.0000
  I   I1        1.0  0.2464033472076202  0.24640333499947223  0.7535966797820786  1.0000
  I   I2        1.0  0.753596635863093  0.7535966862545042  0.24640336530942003  1.0000
  I   I3        1.0  0.7535966342408864  0.24640337080005487  0.24640340040380546  1.0000
  I   I4        1.0  0.2464034251193076  0.7535966616645905  0.7535966009376187  1.0000
  I   I5        1.0  0.2464034048294475  0.7535966033445138  0.24640339123676105  1.0000
  I   I6        1.0  0.7535966760675886  0.246403355450018  0.7535966544782453  1.0000
