data_image0
_chemical_formula_structural       Y2FeO6
_chemical_formula_sum              "Y2 Fe1 O6"
_cell_length_a       5.226792138296129
_cell_length_b       5.226792050136824
_cell_length_c       5.226791824724516
_cell_angle_alpha    59.99999882160664
_cell_angle_beta     59.99999826456775
_cell_angle_gamma    59.999998834757655

_space_group_name_H-M_alt    "P 1"
_space_group_IT_number       1

loop_
  _space_group_symop_operation_xyz
  'x, y, z'

loop_
  _atom_site_type_symbol
  _atom_site_label
  _atom_site_symmetry_multiplicity
  _atom_site_fract_x
  _atom_site_fract_y
  _atom_site_fract_z
  _atom_site_occupancy
  Y   Y1        1.0  0.2499999780897415  0.2500000706589889  0.2500000014877985  1.0000
  Y   Y2        1.0  0.7499999012002707  0.7500000924734765  0.7500000673570841  1.0000
  Fe  Fe1       1.0  0.9999999736006719  3.280487976350529e-08  0.9999999910575658  1.0000
  O   O1        1.0  0.24649188221240179  0.2464918458235775  0.7535081519938184  1.0000
  O   O2        1.0  0.7535082420572299  0.7535080595562634  0.2464918352294684  1.0000
  O   O3        1.0  0.7535080573118025  0.24649189656546383  0.24649191230301376  1.0000
  O   O4        1.0  0.24649188870209224  0.7535081658091578  0.7535081104226066  1.0000
  O   O5        1.0  0.24649196704188722  0.7535080143167494  0.24649188561573251  1.0000
  O   O6        1.0  0.7535081403582443  0.24649184888539008  0.7535080603420351  1.0000
