data_image0
_chemical_formula_structural       Y2FeS6
_chemical_formula_sum              "Y2 Fe1 S6"
_cell_length_a       6.1772581644188485
_cell_length_b       6.177258195590952
_cell_length_c       6.177258237057104
_cell_angle_alpha    60.0000005243759
_cell_angle_beta     60.000001199300186
_cell_angle_gamma    60.00000124604911

_space_group_name_H-M_alt    "P 1"
_space_group_IT_number       1

loop_
  _space_group_symop_operation_xyz
  'x, y, z'

loop_
  _atom_site_type_symbol
  _atom_site_label
  _atom_site_symmetry_multiplicity
  _atom_site_fract_x
  _atom_site_fract_y
  _atom_site_fract_z
  _atom_site_occupancy
  Y   Y1        1.0  0.2500000417974606  0.2500000252673494  0.2500000018749327  1.0000
  Y   Y2        1.0  0.7500000100091452  0.7499999508939987  0.7499999476979096  1.0000
  Fe  Fe1       1.0  0.9999999691294194  0.9999999524159814  1.6563522483193255e-08  1.0000
  S   S1        1.0  0.24812087371370933  0.24812086817272452  0.7518791225792972  1.0000
  S   S2        1.0  0.7518791517901784  0.7518791476419723  0.248120951444365  1.0000
  S   S3        1.0  0.7518790677805915  0.24812092310289693  0.24812088878383112  1.0000
  S   S4        1.0  0.24812087018800313  0.7518791085731382  0.7518790948071956  1.0000
  S   S5        1.0  0.24812089728061107  0.7518791152645674  0.24812083265805365  1.0000
  S   S6        1.0  0.7518791082087284  0.24812090451546365  0.7518791036945094  1.0000
