data_image0
_chemical_formula_structural       Y2FeTe6
_chemical_formula_sum              "Y2 Fe1 Te6"
_cell_length_a       6.998481538418877
_cell_length_b       6.998481762809188
_cell_length_c       6.998481784958028
_cell_angle_alpha    59.99999994746837
_cell_angle_beta     59.999999917711364
_cell_angle_gamma    60.00000118819618

_space_group_name_H-M_alt    "P 1"
_space_group_IT_number       1

loop_
  _space_group_symop_operation_xyz
  'x, y, z'

loop_
  _atom_site_type_symbol
  _atom_site_label
  _atom_site_symmetry_multiplicity
  _atom_site_fract_x
  _atom_site_fract_y
  _atom_site_fract_z
  _atom_site_occupancy
  Y   Y1        1.0  0.2500001002516106  0.24999988008084265  0.24999998733336337  1.0000
  Y   Y2        1.0  0.7500001063947372  0.7499997382433702  0.7500002373718472  1.0000
  Fe  Fe1       1.0  1.5432708545606724e-08  0.9999999982499852  0.9999999331456372  1.0000
  Te  Te1       1.0  0.24339745503511004  0.24339766637738244  0.7566024778243744  1.0000
  Te  Te2       1.0  0.7566023618013916  0.756602522451745  0.24339744077221723  1.0000
  Te  Te3       1.0  0.7566024121026862  0.2433976923360253  0.24339742367229833  1.0000
  Te  Te4       1.0  0.2433975359618872  0.7566024789929521  0.7566024737823669  1.0000
  Te  Te5       1.0  0.2433975802265873  0.7566024877898444  0.24339751075811414  1.0000
  Te  Te6       1.0  0.7566024287710875  0.24339754528794164  0.7566025096595952  1.0000
