data_image0
_chemical_formula_structural       Y2GaI6
_chemical_formula_sum              "Y2 Ga1 I6"
_cell_length_a       7.814084216929881
_cell_length_b       7.8140841803169865
_cell_length_c       7.814084146094574
_cell_angle_alpha    60.00000030650312
_cell_angle_beta     60.00000008591571
_cell_angle_gamma    59.999999344651805

_space_group_name_H-M_alt    "P 1"
_space_group_IT_number       1

loop_
  _space_group_symop_operation_xyz
  'x, y, z'

loop_
  _atom_site_type_symbol
  _atom_site_label
  _atom_site_symmetry_multiplicity
  _atom_site_fract_x
  _atom_site_fract_y
  _atom_site_fract_z
  _atom_site_occupancy
  Y   Y1        1.0  0.2500000024352281  0.2499999860388707  0.25000005518399093  1.0000
  Y   Y2        1.0  0.750000021186469  0.7500000051372802  0.7499999930500503  1.0000
  Ga  Ga1       1.0  9.731928830527997e-09  6.269422339695292e-09  0.9999999779221789  1.0000
  I   I1        1.0  0.2534503545408511  0.25345034987425014  0.746549649471753  1.0000
  I   I2        1.0  0.7465496544829532  0.7465496318977669  0.2534503493357574  1.0000
  I   I3        1.0  0.7465496363576055  0.2534503497584172  0.25345035798907656  1.0000
  I   I4        1.0  0.2534503599634561  0.7465496523892229  0.7465496280238103  1.0000
  I   I5        1.0  0.25345033668258626  0.7465496589238569  0.25345034568532726  1.0000
  I   I6        1.0  0.7465496277254112  0.25345036359940637  0.746549638417837  1.0000
