data_image0
_chemical_formula_structural       Y2GaCl6
_chemical_formula_sum              "Y2 Ga1 Cl6"
_cell_length_a       6.938775164695018
_cell_length_b       6.938775658164736
_cell_length_c       6.938774918197592
_cell_angle_alpha    60.000007837350445
_cell_angle_beta     60.000007438206
_cell_angle_gamma    60.000004101973694

_space_group_name_H-M_alt    "P 1"
_space_group_IT_number       1

loop_
  _space_group_symop_operation_xyz
  'x, y, z'

loop_
  _atom_site_type_symbol
  _atom_site_label
  _atom_site_symmetry_multiplicity
  _atom_site_fract_x
  _atom_site_fract_y
  _atom_site_fract_z
  _atom_site_occupancy
  Y   Y1        1.0  0.24999976793405515  0.2500002174773135  0.2500000201941194  1.0000
  Y   Y2        1.0  0.7499999962641372  0.7499996534004139  0.7499996431612048  1.0000
  Ga  Ga1       1.0  0.9999999709656094  2.718212935674994e-07  0.9999999866948005  1.0000
  Cl  Cl1       1.0  0.24896724537921053  0.2489673780332534  0.7510327098879993  1.0000
  Cl  Cl2       1.0  0.7510326560850259  0.7510324504827304  0.24896767848583398  1.0000
  Cl  Cl3       1.0  0.7510328606671325  0.2489672248571059  0.2489673101492458  1.0000
  Cl  Cl4       1.0  0.2489675333124392  0.7510325489415862  0.7510325970314472  1.0000
  Cl  Cl5       1.0  0.24896724400020961  0.7510326827962942  0.24896750316000327  1.0000
  Cl  Cl6       1.0  0.7510327214332072  0.24896757286742813  0.7510325791259705  1.0000
