data_image0
_chemical_formula_structural       Y2GaBr6
_chemical_formula_sum              "Y2 Ga1 Br6"
_cell_length_a       7.215181596796159
_cell_length_b       7.215181783453372
_cell_length_c       7.215181734755253
_cell_angle_alpha    59.999998261719895
_cell_angle_beta     59.99999903897788
_cell_angle_gamma    60.00000002384249

_space_group_name_H-M_alt    "P 1"
_space_group_IT_number       1

loop_
  _space_group_symop_operation_xyz
  'x, y, z'

loop_
  _atom_site_type_symbol
  _atom_site_label
  _atom_site_symmetry_multiplicity
  _atom_site_fract_x
  _atom_site_fract_y
  _atom_site_fract_z
  _atom_site_occupancy
  Y   Y1        1.0  0.2500000008582676  0.24999995473781791  0.25000004595795133  1.0000
  Y   Y2        1.0  0.7499999467862465  0.7499999643633222  0.7499999563070521  1.0000
  Ga  Ga1       1.0  0.9999999838020792  1.0184731363584538e-08  3.072592408800996e-08  1.0000
  Br  Br1       1.0  0.25146277026061603  0.2514627773164091  0.7485372378319183  1.0000
  Br  Br2       1.0  0.7485371942918289  0.7485372062880314  0.25146285678025004  1.0000
  Br  Br3       1.0  0.7485372540841136  0.25146275550365177  0.251462798087039  1.0000
  Br  Br4       1.0  0.25146286627064807  0.7485372264033363  0.748537126612943  1.0000
  Br  Br5       1.0  0.25146276408243806  0.7485372402344316  0.2514627640965099  1.0000
  Br  Br6       1.0  0.7485372227115723  0.2514628638893401  0.7485371829070522  1.0000
