data_image0
_chemical_formula_structural       Y2GaF6
_chemical_formula_sum              "Y2 Ga1 F6"
_cell_length_a       5.686990011175699
_cell_length_b       5.686990979827932
_cell_length_c       5.686989578534618
_cell_angle_alpha    60.00000866034017
_cell_angle_beta     60.000006020987556
_cell_angle_gamma    60.000004210731035

_space_group_name_H-M_alt    "P 1"
_space_group_IT_number       1

loop_
  _space_group_symop_operation_xyz
  'x, y, z'

loop_
  _atom_site_type_symbol
  _atom_site_label
  _atom_site_symmetry_multiplicity
  _atom_site_fract_x
  _atom_site_fract_y
  _atom_site_fract_z
  _atom_site_occupancy
  Y   Y1        1.0  0.24999698324291797  0.25000114474443014  0.250001029880261  1.0000
  Y   Y2        1.0  0.7499996050444642  0.7499983065348578  0.7500007561108945  1.0000
  Ga  Ga1       1.0  0.9999996955171998  6.676130752764096e-08  4.676635639117477e-08  1.0000
  F   F1        1.0  0.24696366221412724  0.2469643831151513  0.7530360097021204  1.0000
  F   F2        1.0  0.7530372097875404  0.7530344543907598  0.24696453214094577  1.0000
  F   F3        1.0  0.7530371929013366  0.24696500632377794  0.2469632494802971  1.0000
  F   F4        1.0  0.24696429194628242  0.7530358727855297  0.7530359141445317  1.0000
  F   F5        1.0  0.24696407277140825  0.7530356482842497  0.24696400937575327  1.0000
  F   F6        1.0  0.7530372548538066  0.24696509945607478  0.7530344298953795  1.0000
