data_image0
_chemical_formula_structural       Y2GaI6
_chemical_formula_sum              "Y2 Ga1 I6"
_cell_length_a       7.814084374902806
_cell_length_b       7.81408434129186
_cell_length_c       7.814084201287152
_cell_angle_alpha    60.000000813256364
_cell_angle_beta     60.0000009543872
_cell_angle_gamma    60.00000060443008

_space_group_name_H-M_alt    "P 1"
_space_group_IT_number       1

loop_
  _space_group_symop_operation_xyz
  'x, y, z'

loop_
  _atom_site_type_symbol
  _atom_site_label
  _atom_site_symmetry_multiplicity
  _atom_site_fract_x
  _atom_site_fract_y
  _atom_site_fract_z
  _atom_site_occupancy
  Y   Y1        1.0  0.24999998683220845  0.25000001689447504  0.2500000180816909  1.0000
  Y   Y2        1.0  0.7500000518026634  0.749999989556558  0.7499999956443105  1.0000
  Ga  Ga1       1.0  0.9999999912975956  1.7240911251241592e-08  0.9999999906117846  1.0000
  I   I1        1.0  0.253450388382906  0.25345041152726494  0.7465495981634708  1.0000
  I   I2        1.0  0.746549609577619  0.7465495839522789  0.2534504170703791  1.0000
  I   I3        1.0  0.7465496041628689  0.253450377247604  0.2534503908512931  1.0000
  I   I4        1.0  0.2534503863348122  0.7465495962889619  0.7465495904553289  1.0000
  I   I5        1.0  0.2534503736821924  0.7465496221098846  0.2534504003014244  1.0000
  I   I6        1.0  0.746549606276813  0.2534503874758593  0.7465495976839779  1.0000
