data_image0
_chemical_formula_structural       Y2GaTe6
_chemical_formula_sum              "Y2 Ga1 Te6"
_cell_length_a       7.252635494432842
_cell_length_b       7.252635434943601
_cell_length_c       7.252635583813122
_cell_angle_alpha    60.00000041510823
_cell_angle_beta     59.99999918124947
_cell_angle_gamma    60.00000107916028

_space_group_name_H-M_alt    "P 1"
_space_group_IT_number       1

loop_
  _space_group_symop_operation_xyz
  'x, y, z'

loop_
  _atom_site_type_symbol
  _atom_site_label
  _atom_site_symmetry_multiplicity
  _atom_site_fract_x
  _atom_site_fract_y
  _atom_site_fract_z
  _atom_site_occupancy
  Y   Y1        1.0  0.24999997716055752  0.2500000182898299  0.25000002536337446  1.0000
  Y   Y2        1.0  0.750000033989424  0.7499999670576412  0.7500000011805246  1.0000
  Ga  Ga1       1.0  0.9999999877294256  3.3773787624927225e-09  1.2719452573237436e-08  1.0000
  Te  Te1       1.0  0.2614154299094432  0.2614154593933644  0.738584558929885  1.0000
  Te  Te2       1.0  0.738584564080482  0.7385845631052728  0.2614154327998954  1.0000
  Te  Te3       1.0  0.7385845792781638  0.2614154639390464  0.2614154121628399  1.0000
  Te  Te4       1.0  0.2614154286875948  0.738584521408424  0.7385845773665157  1.0000
  Te  Te5       1.0  0.2614154337035452  0.7385845552773639  0.26141544746664225  1.0000
  Te  Te6       1.0  0.7385845664782411  0.2614154486456898  0.7385845339092901  1.0000
