data_image0
_chemical_formula_structural       Y2GaO6
_chemical_formula_sum              "Y2 Ga1 O6"
_cell_length_a       5.168583762674742
_cell_length_b       5.168583853723158
_cell_length_c       5.168583803524706
_cell_angle_alpha    59.99999883228886
_cell_angle_beta     59.99999938890683
_cell_angle_gamma    59.99999971627205

_space_group_name_H-M_alt    "P 1"
_space_group_IT_number       1

loop_
  _space_group_symop_operation_xyz
  'x, y, z'

loop_
  _atom_site_type_symbol
  _atom_site_label
  _atom_site_symmetry_multiplicity
  _atom_site_fract_x
  _atom_site_fract_y
  _atom_site_fract_z
  _atom_site_occupancy
  Y   Y1        1.0  0.24999992402136093  0.25000003973403473  0.2500000394594128  1.0000
  Y   Y2        1.0  0.7500000310620377  0.7499999320041248  0.7500000399134008  1.0000
  Ga  Ga1       1.0  0.9999999862122412  0.9999999810432432  0.9999999757421729  1.0000
  O   O1        1.0  0.260375310536261  0.2603753852368605  0.7396246168571924  1.0000
  O   O2        1.0  0.7396246540680308  0.7396247120898188  0.26037530596167946  1.0000
  O   O3        1.0  0.7396246202789367  0.2603753966747555  0.2603753427120549  1.0000
  O   O4        1.0  0.26037535633209924  0.7396246177161089  0.7396246755490979  1.0000
  O   O5        1.0  0.26037540531594056  0.7396246701947193  0.2603753131764914  1.0000
  O   O6        1.0  0.73962472325872  0.2603752636299257  0.7396246771250231  1.0000
