data_image0
_chemical_formula_structural       Y2GaBr6
_chemical_formula_sum              "Y2 Ga1 Br6"
_cell_length_a       7.215182023444695
_cell_length_b       7.2151822352790225
_cell_length_c       7.215182155782788
_cell_angle_alpha    59.99999924630491
_cell_angle_beta     59.99999986915242
_cell_angle_gamma    60.000000334681445

_space_group_name_H-M_alt    "P 1"
_space_group_IT_number       1

loop_
  _space_group_symop_operation_xyz
  'x, y, z'

loop_
  _atom_site_type_symbol
  _atom_site_label
  _atom_site_symmetry_multiplicity
  _atom_site_fract_x
  _atom_site_fract_y
  _atom_site_fract_z
  _atom_site_occupancy
  Y   Y1        1.0  0.2500000627676855  0.249999950873912  0.25000004631063655  1.0000
  Y   Y2        1.0  0.7499999505403577  0.7499999561665077  0.7499999399353237  1.0000
  Ga  Ga1       1.0  0.9999999832362623  1.188218586223975e-08  4.679170042444141e-08  1.0000
  Br  Br1       1.0  0.2514627759994683  0.2514627952738797  0.7485372317447797  1.0000
  Br  Br2       1.0  0.7485371860299155  0.7485372271934931  0.2514628388482098  1.0000
  Br  Br3       1.0  0.748537204427044  0.2514627561333579  0.25146282925489394  1.0000
  Br  Br4       1.0  0.25146288285330803  0.7485371882510764  0.7485371318241654  1.0000
  Br  Br5       1.0  0.2514627521908743  0.7485372226050392  0.25146282169272244  1.0000
  Br  Br6       1.0  0.7485371963226343  0.2514628932223722  0.7485371161184359  1.0000
