data_image0
_chemical_formula_structural       Y2GaF6
_chemical_formula_sum              "Y2 Ga1 F6"
_cell_length_a       5.6869902992420664
_cell_length_b       5.6869906806623165
_cell_length_c       5.686990055431974
_cell_angle_alpha    60.00000405007489
_cell_angle_beta     60.00000295274629
_cell_angle_gamma    60.00000067544167

_space_group_name_H-M_alt    "P 1"
_space_group_IT_number       1

loop_
  _space_group_symop_operation_xyz
  'x, y, z'

loop_
  _atom_site_type_symbol
  _atom_site_label
  _atom_site_symmetry_multiplicity
  _atom_site_fract_x
  _atom_site_fract_y
  _atom_site_fract_z
  _atom_site_occupancy
  Y   Y1        1.0  0.2499993228765473  0.2499981223233147  0.2500014379794245  1.0000
  Y   Y2        1.0  0.7500002578696202  0.7499987193759589  0.7500001860099844  1.0000
  Ga  Ga1       1.0  0.9999999974805384  0.9999998126376399  1.0900810556153335e-07  1.0000
  F   F1        1.0  0.24696373040511907  0.24696435053237611  0.7530357388948744  1.0000
  F   F2        1.0  0.7530354079317989  0.7530362427212959  0.24696432899233403  1.0000
  F   F3        1.0  0.7530364386326647  0.24696440495271937  0.24696388492268845  1.0000
  F   F4        1.0  0.24696392797710287  0.7530368343780159  0.7530349099352911  1.0000
  F   F5        1.0  0.24696433659137218  0.7530367789482953  0.2469639978665214  1.0000
  F   F6        1.0  0.7530365380290762  0.24696479418892556  0.7530352974841766  1.0000
