data_image0
_chemical_formula_structural       Y2GaCl6
_chemical_formula_sum              "Y2 Ga1 Cl6"
_cell_length_a       6.9387759389147465
_cell_length_b       6.938776054633487
_cell_length_c       6.938775523686876
_cell_angle_alpha    60.000001146126564
_cell_angle_beta     59.999999746116266
_cell_angle_gamma    60.000000733066315

_space_group_name_H-M_alt    "P 1"
_space_group_IT_number       1

loop_
  _space_group_symop_operation_xyz
  'x, y, z'

loop_
  _atom_site_type_symbol
  _atom_site_label
  _atom_site_symmetry_multiplicity
  _atom_site_fract_x
  _atom_site_fract_y
  _atom_site_fract_z
  _atom_site_occupancy
  Y   Y1        1.0  0.24999963537226225  0.2500000945594024  0.25000031528469585  1.0000
  Y   Y2        1.0  0.7500000123694447  0.7499996058900528  0.7500002243277075  1.0000
  Ga  Ga1       1.0  8.285993725243554e-09  6.001249185070205e-08  1.3446840317514658e-07  1.0000
  Cl  Cl1       1.0  0.24896733977832278  0.24896736947210843  0.7510325904761113  1.0000
  Cl  Cl2       1.0  0.7510326764188539  0.7510326734015736  0.24896732275525824  1.0000
  Cl  Cl3       1.0  0.7510328333444827  0.24896735499105488  0.24896718488808417  1.0000
  Cl  Cl4       1.0  0.248967488533011  0.7510325696227148  0.7510325279860203  1.0000
  Cl  Cl5       1.0  0.24896731606465966  0.7510327215349711  0.2489673196808128  1.0000
  Cl  Cl6       1.0  0.7510326905139331  0.2489675349125844  0.7510323647493806  1.0000
