data_image0
_chemical_formula_structural       Y2GaS6
_chemical_formula_sum              "Y2 Ga1 S6"
_cell_length_a       6.28867439951036
_cell_length_b       6.288674855671626
_cell_length_c       6.2886740717171445
_cell_angle_alpha    60.000004045546675
_cell_angle_beta     60.000001329252434
_cell_angle_gamma    60.00000331934285

_space_group_name_H-M_alt    "P 1"
_space_group_IT_number       1

loop_
  _space_group_symop_operation_xyz
  'x, y, z'

loop_
  _atom_site_type_symbol
  _atom_site_label
  _atom_site_symmetry_multiplicity
  _atom_site_fract_x
  _atom_site_fract_y
  _atom_site_fract_z
  _atom_site_occupancy
  Y   Y1        1.0  0.25000005785387697  0.2500000822698402  0.24999990744035264  1.0000
  Y   Y2        1.0  0.7500000824825749  0.7499999196227412  0.750000023683275  1.0000
  Ga  Ga1       1.0  7.67877996911905e-09  0.9999999824721367  1.744220963282347e-09  1.0000
  S   S1        1.0  0.25717528493674807  0.2571753042243469  0.7428247153577622  1.0000
  S   S2        1.0  0.7428246918701834  0.7428247035108556  0.25717526439626937  1.0000
  S   S3        1.0  0.7428246739347668  0.25717527807252283  0.2571753968644972  1.0000
  S   S4        1.0  0.2571753049501953  0.7428246848692517  0.7428246249193172  1.0000
  S   S5        1.0  0.25717526256028295  0.7428247352110203  0.25717538945665236  1.0000
  S   S6        1.0  0.7428246482372021  0.2571752997897474  0.7428246700954123  1.0000
