data_image0
_chemical_formula_structural       Y2GeS6
_chemical_formula_sum              "Y2 Ge1 S6"
_cell_length_a       6.408710028131983
_cell_length_b       6.408709949470398
_cell_length_c       6.408710126547653
_cell_angle_alpha    59.99999856515047
_cell_angle_beta     59.999999588638616
_cell_angle_gamma    60.0000000234632

_space_group_name_H-M_alt    "P 1"
_space_group_IT_number       1

loop_
  _space_group_symop_operation_xyz
  'x, y, z'

loop_
  _atom_site_type_symbol
  _atom_site_label
  _atom_site_symmetry_multiplicity
  _atom_site_fract_x
  _atom_site_fract_y
  _atom_site_fract_z
  _atom_site_occupancy
  Y   Y1        1.0  0.250000079683691  0.2499999093658203  0.2500000150855598  1.0000
  Y   Y2        1.0  0.7500000431454208  0.7499999860909722  0.7500000516617817  1.0000
  Ge  Ge1       1.0  3.3196883284642585e-08  0.9999999598676762  0.9999999675790634  1.0000
  S   S1        1.0  0.25371750306190666  0.25371751445368307  0.7462824597599755  1.0000
  S   S2        1.0  0.7462824330359419  0.7462825357992166  0.2537174794003149  1.0000
  S   S3        1.0  0.7462824433645606  0.2537175426728448  0.2537175323040605  1.0000
  S   S4        1.0  0.25371749156854195  0.7462825056689909  0.7462825550695161  1.0000
  S   S5        1.0  0.25371749959612744  0.7462825125792172  0.2537174685648848  1.0000
  S   S6        1.0  0.7462824735925221  0.25371754531793506  0.7462824778750304  1.0000
