data_image0
_chemical_formula_structural       Y2GeO6
_chemical_formula_sum              "Y2 Ge1 O6"
_cell_length_a       5.22180336875323
_cell_length_b       5.221803196756248
_cell_length_c       5.2218033422605235
_cell_angle_alpha    60.000002726042105
_cell_angle_beta     60.00000186223087
_cell_angle_gamma    60.000004238210316

_space_group_name_H-M_alt    "P 1"
_space_group_IT_number       1

loop_
  _space_group_symop_operation_xyz
  'x, y, z'

loop_
  _atom_site_type_symbol
  _atom_site_label
  _atom_site_symmetry_multiplicity
  _atom_site_fract_x
  _atom_site_fract_y
  _atom_site_fract_z
  _atom_site_occupancy
  Y   Y1        1.0  0.24999996549029666  0.24999998109500696  0.2500000308391755  1.0000
  Y   Y2        1.0  0.7500000321193563  0.7499999808121349  0.7500000423156364  1.0000
  Ge  Ge1       1.0  0.9999999811253234  2.3454441410482414e-08  0.9999999862198347  1.0000
  O   O1        1.0  0.2532892558663672  0.2532893646255854  0.7467107206128655  1.0000
  O   O2        1.0  0.7467107033232424  0.7467106793721027  0.25328930198098865  1.0000
  O   O3        1.0  0.7467106325620703  0.2532893569787769  0.25328931326589416  1.0000
  O   O4        1.0  0.25328934836119815  0.7467106682553555  0.7467106331560663  1.0000
  O   O5        1.0  0.2532893584391621  0.7467106392832332  0.25328932794968795  1.0000
  O   O6        1.0  0.7467106457813949  0.2532893624964578  0.7467106300411317  1.0000
