data_image0
_chemical_formula_structural       Y2GeCl6
_chemical_formula_sum              "Y2 Ge1 Cl6"
_cell_length_a       7.033945549534637
_cell_length_b       7.03394602655209
_cell_length_c       7.033946141987851
_cell_angle_alpha    60.00000051153768
_cell_angle_beta     60.000001505340585
_cell_angle_gamma    59.99999842987966

_space_group_name_H-M_alt    "P 1"
_space_group_IT_number       1

loop_
  _space_group_symop_operation_xyz
  'x, y, z'

loop_
  _atom_site_type_symbol
  _atom_site_label
  _atom_site_symmetry_multiplicity
  _atom_site_fract_x
  _atom_site_fract_y
  _atom_site_fract_z
  _atom_site_occupancy
  Y   Y1        1.0  0.24999991523367546  0.24999998519943362  0.2500000128273682  1.0000
  Y   Y2        1.0  0.7500000248687009  0.7500002951306778  0.7500001783820475  1.0000
  Ge  Ge1       1.0  0.9999999255983418  0.9999999129404161  0.9999999883216079  1.0000
  Cl  Cl1       1.0  0.2570619859607865  0.2570619622414047  0.7429380772308254  1.0000
  Cl  Cl2       1.0  0.7429377388347107  0.7429377574249763  0.2570621749781557  1.0000
  Cl  Cl3       1.0  0.7429380822413559  0.2570621789797764  0.2570619048963761  1.0000
  Cl  Cl4       1.0  0.25706205807512067  0.7429378749954038  0.7429378956271695  1.0000
  Cl  Cl5       1.0  0.257062101289163  0.7429380024328096  0.257062130986941  1.0000
  Cl  Cl6       1.0  0.7429381551009105  0.25706204805998245  0.7429376772164725  1.0000
