data_image0
_chemical_formula_structural       Y2GeTe6
_chemical_formula_sum              "Y2 Ge1 Te6"
_cell_length_a       7.2562130671331
_cell_length_b       7.2562131308857465
_cell_length_c       7.25621298379125
_cell_angle_alpha    60.00000022216861
_cell_angle_beta     60.00000036678689
_cell_angle_gamma    59.99999984830615

_space_group_name_H-M_alt    "P 1"
_space_group_IT_number       1

loop_
  _space_group_symop_operation_xyz
  'x, y, z'

loop_
  _atom_site_type_symbol
  _atom_site_label
  _atom_site_symmetry_multiplicity
  _atom_site_fract_x
  _atom_site_fract_y
  _atom_site_fract_z
  _atom_site_occupancy
  Y   Y1        1.0  0.2500000593350126  0.24999997505361768  0.24999995824418234  1.0000
  Y   Y2        1.0  0.7499999709395111  0.749999935287994  0.7500001592492004  1.0000
  Ge  Ge1       1.0  1.676547613387469e-08  0.9999999831214318  1.659409815285954e-08  1.0000
  Te  Te1       1.0  0.26188975312759727  0.26188982148024464  0.7381102126381882  1.0000
  Te  Te2       1.0  0.738110194025539  0.7381102475199076  0.26188976234878775  1.0000
  Te  Te3       1.0  0.7381101800868357  0.26188983702420665  0.2618897492805508  1.0000
  Te  Te4       1.0  0.2618897806822473  0.7381101577102464  0.7381102312249738  1.0000
  Te  Te5       1.0  0.2618898484202273  0.7381102411244573  0.2618897170097506  1.0000
  Te  Te6       1.0  0.738110197781283  0.26188980762141284  0.7381101882613342  1.0000
