data_image0
_chemical_formula_structural       Y2GeBr6
_chemical_formula_sum              "Y2 Ge1 Br6"
_cell_length_a       7.3294759519982335
_cell_length_b       7.329476567283176
_cell_length_c       7.329475928718649
_cell_angle_alpha    59.999999956469956
_cell_angle_beta     60.00000008347545
_cell_angle_gamma    59.99999956472134

_space_group_name_H-M_alt    "P 1"
_space_group_IT_number       1

loop_
  _space_group_symop_operation_xyz
  'x, y, z'

loop_
  _atom_site_type_symbol
  _atom_site_label
  _atom_site_symmetry_multiplicity
  _atom_site_fract_x
  _atom_site_fract_y
  _atom_site_fract_z
  _atom_site_occupancy
  Y   Y1        1.0  0.2499999660062902  0.250000097982853  0.25000004643239604  1.0000
  Y   Y2        1.0  0.7500001697477242  0.749999785968989  0.7499999081479266  1.0000
  Ge  Ge1       1.0  0.9999999929501926  1.1696899626998467e-08  0.9999999567458329  1.0000
  Br  Br1       1.0  0.25856295385238925  0.2585631598143812  0.7414369280320185  1.0000
  Br  Br2       1.0  0.741436982265466  0.7414369213137448  0.258563116461249  1.0000
  Br  Br3       1.0  0.7414369563661191  0.25856308099633685  0.2585630247455996  1.0000
  Br  Br4       1.0  0.25856304735286817  0.7414369249374442  0.7414369812493015  1.0000
  Br  Br5       1.0  0.25856298700964725  0.7414369125055759  0.2585631021727796  1.0000
  Br  Br6       1.0  0.7414369445103044  0.2585631067960896  0.741436946881237  1.0000
