data_image0
_chemical_formula_structural       Y2GeI6
_chemical_formula_sum              "Y2 Ge1 I6"
_cell_length_a       7.870762433447087
_cell_length_b       7.870762477293997
_cell_length_c       7.870762365537625
_cell_angle_alpha    59.99999977992662
_cell_angle_beta     60.00000016712795
_cell_angle_gamma    59.99999939696264

_space_group_name_H-M_alt    "P 1"
_space_group_IT_number       1

loop_
  _space_group_symop_operation_xyz
  'x, y, z'

loop_
  _atom_site_type_symbol
  _atom_site_label
  _atom_site_symmetry_multiplicity
  _atom_site_fract_x
  _atom_site_fract_y
  _atom_site_fract_z
  _atom_site_occupancy
  Y   Y1        1.0  0.24999995038572634  0.24999998896656403  0.2499999941411759  1.0000
  Y   Y2        1.0  0.7500000022049145  0.7500000727123768  0.7499998412880674  1.0000
  Ge  Ge1       1.0  5.186896208207897e-10  0.9999999984439313  0.9999999801902903  1.0000
  I   I1        1.0  0.2598863096780843  0.25988629473383973  0.7401137247254477  1.0000
  I   I2        1.0  0.7401136970621833  0.740113696921998  0.2598863613108003  1.0000
  I   I3        1.0  0.7401137275887861  0.25988626360161154  0.259886345315936  1.0000
  I   I4        1.0  0.25988632335701206  0.7401136922646412  0.7401137098313154  1.0000
  I   I5        1.0  0.2598862778775949  0.7401136895808073  0.25988633986153664  1.0000
  I   I6        1.0  0.7401137121171559  0.2598863082993064  0.7401137069669583  1.0000
