data_image0
_chemical_formula_structural       Y2GeF6
_chemical_formula_sum              "Y2 Ge1 F6"
_cell_length_a       5.778765596136741
_cell_length_b       5.778756846915861
_cell_length_c       5.778757684911939
_cell_angle_alpha    59.99999389031622
_cell_angle_beta     60.00003562354485
_cell_angle_gamma    60.00003449403046

_space_group_name_H-M_alt    "P 1"
_space_group_IT_number       1

loop_
  _space_group_symop_operation_xyz
  'x, y, z'

loop_
  _atom_site_type_symbol
  _atom_site_label
  _atom_site_symmetry_multiplicity
  _atom_site_fract_x
  _atom_site_fract_y
  _atom_site_fract_z
  _atom_site_occupancy
  Y   Y1        1.0  0.2500261058885843  0.25000135898692843  0.24998881961528965  1.0000
  Y   Y2        1.0  0.7499914498482302  0.7500148582509464  0.7500009996328822  1.0000
  Ge  Ge1       1.0  2.2329531564029314e-06  2.358884503553485e-06  0.9999981263170649  1.0000
  F   F1        1.0  0.26262548910154054  0.26260880884227455  0.7373817779947371  1.0000
  F   F2        1.0  0.7373748223775374  0.7373925238957892  0.26261452571990074  1.0000
  F   F3        1.0  0.7373689862328182  0.26261215205190225  0.26262163819553797  1.0000
  F   F4        1.0  0.2626186864606832  0.7373803576500555  0.7373865852677876  1.0000
  F   F5        1.0  0.26262138507122273  0.7373791923121406  0.2626117236448481  1.0000
  F   F6        1.0  0.7373708056463204  0.26260838344861653  0.7373958148512922  1.0000
