data_image0
_chemical_formula_structural       Y2HfO6
_chemical_formula_sum              "Y2 Hf1 O6"
_cell_length_a       5.3733495966467135
_cell_length_b       5.3733499042014286
_cell_length_c       5.373349767557312
_cell_angle_alpha    60.000000960342895
_cell_angle_beta     60.00000195929997
_cell_angle_gamma    60.00000104622074

_space_group_name_H-M_alt    "P 1"
_space_group_IT_number       1

loop_
  _space_group_symop_operation_xyz
  'x, y, z'

loop_
  _atom_site_type_symbol
  _atom_site_label
  _atom_site_symmetry_multiplicity
  _atom_site_fract_x
  _atom_site_fract_y
  _atom_site_fract_z
  _atom_site_occupancy
  Y   Y1        1.0  0.2500000270301639  0.25000001796739224  0.24999989338311793  1.0000
  Y   Y2        1.0  0.7499999416924842  0.7500000014783945  0.7500000403274275  1.0000
  Hf  Hf1       1.0  0.9999999887338793  2.7351538217797162e-08  0.9999999528755247  1.0000
  O   O1        1.0  0.26174064213090514  0.26174064903519456  0.738259377813518  1.0000
  O   O2        1.0  0.738259377082568  0.7382592769595034  0.26174067601209433  1.0000
  O   O3        1.0  0.7382593961203482  0.26174063620804267  0.26174064629241284  1.0000
  O   O4        1.0  0.26174063036296985  0.7382593969135115  0.7382593615010683  1.0000
  O   O5        1.0  0.2617406551395703  0.7382594016925859  0.2617405845425986  1.0000
  O   O6        1.0  0.7382593341823598  0.26174062687037897  0.7382594348056878  1.0000
