data_image0
_chemical_formula_structural       Y2HfTe6
_chemical_formula_sum              "Y2 Hf1 Te6"
_cell_length_a       7.355005471056759
_cell_length_b       7.355005541301264
_cell_length_c       7.355005486550971
_cell_angle_alpha    59.99999879411097
_cell_angle_beta     60.000000156640276
_cell_angle_gamma    60.00000015069722

_space_group_name_H-M_alt    "P 1"
_space_group_IT_number       1

loop_
  _space_group_symop_operation_xyz
  'x, y, z'

loop_
  _atom_site_type_symbol
  _atom_site_label
  _atom_site_symmetry_multiplicity
  _atom_site_fract_x
  _atom_site_fract_y
  _atom_site_fract_z
  _atom_site_occupancy
  Y   Y1        1.0  0.2499999559301994  0.2499999290961792  0.25000009959286734  1.0000
  Y   Y2        1.0  0.7500000549930127  0.7499999321596844  0.7499999016067104  1.0000
  Hf  Hf1       1.0  2.7037439556106174e-08  3.663408061916328e-08  4.5662482221689265e-08  1.0000
  Te  Te1       1.0  0.2646333297974777  0.26463334955072415  0.7353666760183026  1.0000
  Te  Te2       1.0  0.7353666608876842  0.7353666948755471  0.2646333266518101  1.0000
  Te  Te3       1.0  0.7353666896263088  0.26463334167931357  0.26463334161310925  1.0000
  Te  Te4       1.0  0.2646333802394257  0.7353666394699082  0.7353666286321136  1.0000
  Te  Te5       1.0  0.26463327917417073  0.7353666992423328  0.26463333761330804  1.0000
  Te  Te6       1.0  0.7353666230222793  0.2646333751572783  0.7353666467278501  1.0000
