data_image0
_chemical_formula_structural       Y2HfCl6
_chemical_formula_sum              "Y2 Hf1 Cl6"
_cell_length_a       7.155501322902569
_cell_length_b       7.1555005451860865
_cell_length_c       7.155501417085252
_cell_angle_alpha    59.99999759311925
_cell_angle_beta     59.9999959412998
_cell_angle_gamma    59.999995947412636

_space_group_name_H-M_alt    "P 1"
_space_group_IT_number       1

loop_
  _space_group_symop_operation_xyz
  'x, y, z'

loop_
  _atom_site_type_symbol
  _atom_site_label
  _atom_site_symmetry_multiplicity
  _atom_site_fract_x
  _atom_site_fract_y
  _atom_site_fract_z
  _atom_site_occupancy
  Y   Y1        1.0  0.25000075382051395  0.24999963531845965  0.24999979906148495  1.0000
  Y   Y2        1.0  0.7499993991498798  0.7500011122247884  0.7499992710097036  1.0000
  Hf  Hf1       1.0  0.9999998597345877  1.0612001710355235e-07  0.9999999625691848  1.0000
  Cl  Cl1       1.0  0.24827239169364568  0.2482714868786724  0.7517279777106685  1.0000
  Cl  Cl2       1.0  0.7517278084529064  0.7517281121721366  0.24827216709093322  1.0000
  Cl  Cl3       1.0  0.7517279339454416  0.2482715742197547  0.24827221351491055  1.0000
  Cl  Cl4       1.0  0.24827184737944394  0.751728211396893  0.7517280040913097  1.0000
  Cl  Cl5       1.0  0.24827190860773904  0.7517280925389844  0.2482721043811979  1.0000
  Cl  Cl6       1.0  0.751728157596799  0.24827167596154173  0.7517283385074567  1.0000
