data_image0
_chemical_formula_structural       Y2HfS6
_chemical_formula_sum              "Y2 Hf1 S6"
_cell_length_a       6.434367981660272
_cell_length_b       6.434368170709722
_cell_length_c       6.434367987300015
_cell_angle_alpha    60.00000094011551
_cell_angle_beta     60.000001573715515
_cell_angle_gamma    60.00000143411215

_space_group_name_H-M_alt    "P 1"
_space_group_IT_number       1

loop_
  _space_group_symop_operation_xyz
  'x, y, z'

loop_
  _atom_site_type_symbol
  _atom_site_label
  _atom_site_symmetry_multiplicity
  _atom_site_fract_x
  _atom_site_fract_y
  _atom_site_fract_z
  _atom_site_occupancy
  Y   Y1        1.0  0.25000000883324014  0.2500000679487656  0.24999994852299348  1.0000
  Y   Y2        1.0  0.7499999760742463  0.7499999621091236  0.7500001626072651  1.0000
  Hf  Hf1       1.0  0.9999999906103247  0.9999999904827886  0.999999984586976  1.0000
  S   S1        1.0  0.26386961464122133  0.26386958101221536  0.7361304135541781  1.0000
  S   S2        1.0  0.7361303707017014  0.736130426204367  0.26386958133837174  1.0000
  S   S3        1.0  0.7361303963313776  0.2638696635497422  0.2638695011518797  1.0000
  S   S4        1.0  0.26386958214111583  0.7361303588943788  0.7361304678039565  1.0000
  S   S5        1.0  0.26386964247452754  0.7361303865143094  0.2638695326258961  1.0000
  S   S6        1.0  0.7361304157402969  0.2638695635990044  0.7361304108660206  1.0000
