data_image0
_chemical_formula_structural       Y2HfSe6
_chemical_formula_sum              "Y2 Hf1 Se6"
_cell_length_a       6.8036175540384285
_cell_length_b       6.80361745100938
_cell_length_c       6.8036175690528715
_cell_angle_alpha    59.99999920766889
_cell_angle_beta     59.99999959646212
_cell_angle_gamma    60.00000029095803

_space_group_name_H-M_alt    "P 1"
_space_group_IT_number       1

loop_
  _space_group_symop_operation_xyz
  'x, y, z'

loop_
  _atom_site_type_symbol
  _atom_site_label
  _atom_site_symmetry_multiplicity
  _atom_site_fract_x
  _atom_site_fract_y
  _atom_site_fract_z
  _atom_site_occupancy
  Y   Y1        1.0  0.2500000099849473  0.2499999954751617  0.2499999985071243  1.0000
  Y   Y2        1.0  0.7500000433264282  0.7499999972263118  0.749999852622405  1.0000
  Hf  Hf1       1.0  2.006040900596313e-09  0.9999999837987601  0.9999999982787617  1.0000
  Se  Se1       1.0  0.2637062222942923  0.26370620624972385  0.7362937950618493  1.0000
  Se  Se2       1.0  0.7362938069476223  0.736293802652989  0.2637062275597098  1.0000
  Se  Se3       1.0  0.7362937371289717  0.2637062137230759  0.2637062546477331  1.0000
  Se  Se4       1.0  0.2637062602782124  0.7362937735779835  0.7362937844033739  1.0000
  Se  Se5       1.0  0.263706172908239  0.7362937705574563  0.26370628813756003  1.0000
  Se  Se6       1.0  0.7362937456047702  0.2637062599469089  0.7362937952154952  1.0000
