data_image0
_chemical_formula_structural       Y2HfBr6
_chemical_formula_sum              "Y2 Hf1 Br6"
_cell_length_a       7.406062321915047
_cell_length_b       7.406061786146462
_cell_length_c       7.406062038829433
_cell_angle_alpha    60.00000109841606
_cell_angle_beta     60.000000253836504
_cell_angle_gamma    60.00000067003525

_space_group_name_H-M_alt    "P 1"
_space_group_IT_number       1

loop_
  _space_group_symop_operation_xyz
  'x, y, z'

loop_
  _atom_site_type_symbol
  _atom_site_label
  _atom_site_symmetry_multiplicity
  _atom_site_fract_x
  _atom_site_fract_y
  _atom_site_fract_z
  _atom_site_occupancy
  Y   Y1        1.0  0.24999999268860715  0.25000005228085453  0.24999997179116915  1.0000
  Y   Y2        1.0  0.749999894475566  0.7499999071329616  0.7500001252312802  1.0000
  Hf  Hf1       1.0  5.3467037181538914e-08  3.3074146824001613e-09  3.912503561357348e-08  1.0000
  Br  Br1       1.0  0.25018999181414364  0.2501898576896139  0.7498100655540567  1.0000
  Br  Br2       1.0  0.7498099975121438  0.7498101133001442  0.25018992329004475  1.0000
  Br  Br3       1.0  0.7498100774197486  0.2501900312896228  0.2501898440886075  1.0000
  Br  Br4       1.0  0.250189955986351  0.7498099992335497  0.7498100524415242  1.0000
  Br  Br5       1.0  0.2501899619614254  0.7498100012491188  0.25018998712345947  1.0000
  Br  Br6       1.0  0.749810089146325  0.25019002762035064  0.7498099904988841  1.0000
