data_image0
_chemical_formula_structural       Y2HfF6
_chemical_formula_sum              "Y2 Hf1 F6"
_cell_length_a       5.827118323414686
_cell_length_b       5.827118584096238
_cell_length_c       5.827119208710539
_cell_angle_alpha    59.999996726554336
_cell_angle_beta     59.999997749612255
_cell_angle_gamma    59.99999831875131

_space_group_name_H-M_alt    "P 1"
_space_group_IT_number       1

loop_
  _space_group_symop_operation_xyz
  'x, y, z'

loop_
  _atom_site_type_symbol
  _atom_site_label
  _atom_site_symmetry_multiplicity
  _atom_site_fract_x
  _atom_site_fract_y
  _atom_site_fract_z
  _atom_site_occupancy
  Y   Y1        1.0  0.24999851753852328  0.25000011196092725  0.25000033674165095  1.0000
  Y   Y2        1.0  0.749998993548753  0.7500004283620454  0.7499999539899371  1.0000
  Hf  Hf1       1.0  0.9999995749970255  1.4712617105026816e-08  0.9999999854825965  1.0000
  F   F1        1.0  0.2550494962583785  0.25504851877190937  0.7449513126295558  1.0000
  F   F2        1.0  0.7449513008616153  0.7449506763978008  0.2550496516994426  1.0000
  F   F3        1.0  0.7449514402640914  0.2550489765035775  0.25504922282241554  1.0000
  F   F4        1.0  0.25504942900007554  0.7449510425724912  0.7449509536907772  1.0000
  F   F5        1.0  0.25504937904056885  0.7449511870181034  0.25504854513466085  1.0000
  F   F6        1.0  0.7449518107786985  0.2550490296273541  0.7449501779010527  1.0000
