data_image0
_chemical_formula_structural       Y2HfI6
_chemical_formula_sum              "Y2 Hf1 I6"
_cell_length_a       8.019239389998976
_cell_length_b       8.019239393532112
_cell_length_c       8.019239459929338
_cell_angle_alpha    59.9999989026033
_cell_angle_beta     59.9999997526406
_cell_angle_gamma    60.000000079287304

_space_group_name_H-M_alt    "P 1"
_space_group_IT_number       1

loop_
  _space_group_symop_operation_xyz
  'x, y, z'

loop_
  _atom_site_type_symbol
  _atom_site_label
  _atom_site_symmetry_multiplicity
  _atom_site_fract_x
  _atom_site_fract_y
  _atom_site_fract_z
  _atom_site_occupancy
  Y   Y1        1.0  0.24999998387881475  0.2499999526956358  0.25000004769695233  1.0000
  Y   Y2        1.0  0.7499999576106026  0.7500000734303097  0.7499999077319709  1.0000
  Hf  Hf1       1.0  7.286909406442385e-09  0.9999999954182253  2.857545780791532e-08  1.0000
  I   I1        1.0  0.2515753512831744  0.25157530406720374  0.7484246708460648  1.0000
  I   I2        1.0  0.7484246740855527  0.7484246777682548  0.2515753483375174  1.0000
  I   I3        1.0  0.7484246963452508  0.25157529793511574  0.25157536351899545  1.0000
  I   I4        1.0  0.2515753399463471  0.7484246900093755  0.7484246471486349  1.0000
  I   I5        1.0  0.25157531513010833  0.7484246947248681  0.2515753262981063  1.0000
  I   I6        1.0  0.7484246779491198  0.251575319183012  0.7484246568309841  1.0000
