data_image0
_chemical_formula_structural       Y2IrS6
_chemical_formula_sum              "Y2 Ir1 S6"
_cell_length_a       6.388953610349258
_cell_length_b       6.38895331176365
_cell_length_c       6.3889536822387365
_cell_angle_alpha    59.99999877254808
_cell_angle_beta     59.99999937047005
_cell_angle_gamma    59.999998987959074

_space_group_name_H-M_alt    "P 1"
_space_group_IT_number       1

loop_
  _space_group_symop_operation_xyz
  'x, y, z'

loop_
  _atom_site_type_symbol
  _atom_site_label
  _atom_site_symmetry_multiplicity
  _atom_site_fract_x
  _atom_site_fract_y
  _atom_site_fract_z
  _atom_site_occupancy
  Y   Y1        1.0  0.25000003045038266  0.24999993457897735  0.2499999821293817  1.0000
  Y   Y2        1.0  0.7500000220112316  0.7500000280227356  0.7499999722185031  1.0000
  Ir  Ir1       1.0  0.999999955236247  9.584863327240195e-09  3.950226621796952e-08  1.0000
  S   S1        1.0  0.25469293305949897  0.2546929296541204  0.7453070519098391  1.0000
  S   S2        1.0  0.7453070595218484  0.7453070770379638  0.2546929165937999  1.0000
  S   S3        1.0  0.7453070806104148  0.25469293016211825  0.25469296298490085  1.0000
  S   S4        1.0  0.2546929180507511  0.7453070420244582  0.7453070651224267  1.0000
  S   S5        1.0  0.25469293795873055  0.7453070837130836  0.2546929813980676  1.0000
  S   S6        1.0  0.7453070434308707  0.2546929728202907  0.7453070397800695  1.0000
