data_image0
_chemical_formula_structural       Y2IrCl6
_chemical_formula_sum              "Y2 Ir1 Cl6"
_cell_length_a       6.856887560258573
_cell_length_b       6.856887700034461
_cell_length_c       6.856887176862995
_cell_angle_alpha    60.00000044498359
_cell_angle_beta     59.99999653412775
_cell_angle_gamma    60.00000073068297

_space_group_name_H-M_alt    "P 1"
_space_group_IT_number       1

loop_
  _space_group_symop_operation_xyz
  'x, y, z'

loop_
  _atom_site_type_symbol
  _atom_site_label
  _atom_site_symmetry_multiplicity
  _atom_site_fract_x
  _atom_site_fract_y
  _atom_site_fract_z
  _atom_site_occupancy
  Y   Y1        1.0  0.25000057701470385  0.24999981079553896  0.2499998988150319  1.0000
  Y   Y2        1.0  0.74999998212266  0.7500000111000786  0.7500004128040457  1.0000
  Ir  Ir1       1.0  0.999999939087037  0.9999999857107781  0.999999967598485  1.0000
  Cl  Cl1       1.0  0.2441253154334585  0.2441253849485922  0.7558745914138721  1.0000
  Cl  Cl2       1.0  0.7558745157513131  0.7558747263037607  0.2441251723912223  1.0000
  Cl  Cl3       1.0  0.7558745399573868  0.24412536339047314  0.24412527656492122  1.0000
  Cl  Cl4       1.0  0.24412524638978758  0.7558746853465342  0.7558746327950733  1.0000
  Cl  Cl5       1.0  0.24412533183997837  0.7558747032036461  0.244125323863225  1.0000
  Cl  Cl6       1.0  0.7558745480290829  0.2441253276718341  0.7558747212147237  1.0000
