data_image0
_chemical_formula_structural       Y2IrI6
_chemical_formula_sum              "Y2 Ir1 I6"
_cell_length_a       7.691618078364927
_cell_length_b       7.691618094758441
_cell_length_c       7.691617925999315
_cell_angle_alpha    60.00000099203997
_cell_angle_beta     59.99999971162588
_cell_angle_gamma    60.00000063104888

_space_group_name_H-M_alt    "P 1"
_space_group_IT_number       1

loop_
  _space_group_symop_operation_xyz
  'x, y, z'

loop_
  _atom_site_type_symbol
  _atom_site_label
  _atom_site_symmetry_multiplicity
  _atom_site_fract_x
  _atom_site_fract_y
  _atom_site_fract_z
  _atom_site_occupancy
  Y   Y1        1.0  0.24999999324352673  0.25000002623182704  0.25000000679408  1.0000
  Y   Y2        1.0  0.749999971391817  0.7499999911183729  0.7500000891420409  1.0000
  Ir  Ir1       1.0  3.0024904730377177e-09  6.495287735334213e-17  7.599570776311002e-09  1.0000
  I   I1        1.0  0.24530344810002339  0.24530348415986283  0.7546965305341188  1.0000
  I   I2        1.0  0.7546965615883043  0.7546965061210484  0.24530346020152705  1.0000
  I   I3        1.0  0.7546965222769372  0.24530346582119977  0.2453034567399667  1.0000
  I   I4        1.0  0.24530345154801117  0.7546965419751328  0.7546965119668606  1.0000
  I   I5        1.0  0.24530350670222825  0.7546965306596717  0.24530343806603505  1.0000
  I   I6        1.0  0.7546965431710838  0.24530345165968429  0.7546965001546317  1.0000
