data_image0
_chemical_formula_structural       Y2IrF6
_chemical_formula_sum              "Y2 Ir1 F6"
_cell_length_a       5.331921735911793
_cell_length_b       5.331922006810926
_cell_length_c       5.331921613374644
_cell_angle_alpha    59.99999878746382
_cell_angle_beta     59.999999453819754
_cell_angle_gamma    59.99999912945551

_space_group_name_H-M_alt    "P 1"
_space_group_IT_number       1

loop_
  _space_group_symop_operation_xyz
  'x, y, z'

loop_
  _atom_site_type_symbol
  _atom_site_label
  _atom_site_symmetry_multiplicity
  _atom_site_fract_x
  _atom_site_fract_y
  _atom_site_fract_z
  _atom_site_occupancy
  Y   Y1        1.0  0.2500000734984227  0.25000003387423675  0.24999992255995102  1.0000
  Y   Y2        1.0  0.7500000878247447  0.7499999798814679  0.7500000430499592  1.0000
  Ir  Ir1       1.0  3.80580198711748e-09  2.7564053681860727e-08  0.9999999918170571  1.0000
  F   F1        1.0  0.2760259717518067  0.2760258504101016  0.7239741248269479  1.0000
  F   F2        1.0  0.7239740602899966  0.7239741288905384  0.27602588889224283  1.0000
  F   F3        1.0  0.7239740521183589  0.27602603489694266  0.2760258569617537  1.0000
  F   F4        1.0  0.2760258327238988  0.7239740546599182  0.723974085205269  1.0000
  F   F5        1.0  0.2760258814971758  0.7239739974968371  0.27602599428773555  1.0000
  F   F6        1.0  0.7239740429421702  0.2760259082996605  0.7239740968562833  1.0000
