data_image0
_chemical_formula_structural       Y2IrF6
_chemical_formula_sum              "Y2 Ir1 F6"
_cell_length_a       5.331850404774484
_cell_length_b       5.331850518844844
_cell_length_c       5.331850476925012
_cell_angle_alpha    59.99999770520725
_cell_angle_beta     59.99999988657618
_cell_angle_gamma    59.99999807365969

_space_group_name_H-M_alt    "P 1"
_space_group_IT_number       1

loop_
  _space_group_symop_operation_xyz
  'x, y, z'

loop_
  _atom_site_type_symbol
  _atom_site_label
  _atom_site_symmetry_multiplicity
  _atom_site_fract_x
  _atom_site_fract_y
  _atom_site_fract_z
  _atom_site_occupancy
  Y   Y1        1.0  0.2500000281120358  0.24999969693573873  0.25000012231569246  1.0000
  Y   Y2        1.0  0.7500000192830374  0.7500001175820109  0.7499999292231887  1.0000
  Ir  Ir1       1.0  0.9999999951431905  2.7564422226017563e-08  5.0538401326443663e-08  1.0000
  F   F1        1.0  0.2760167827248314  0.27601680874512263  0.7239832339688418  1.0000
  F   F2        1.0  0.7239831324293964  0.7239832400702304  0.2760168471890784  1.0000
  F   F3        1.0  0.7239831706783352  0.2760167983733083  0.2760168560140156  1.0000
  F   F4        1.0  0.2760168029488639  0.7239832504420485  0.7239830552433077  1.0000
  F   F5        1.0  0.2760168083895317  0.723983268576141  0.2760168391640372  1.0000
  F   F6        1.0  0.7239832535044824  0.2760168078036368  0.7239830741943546  1.0000
