data_image0
_chemical_formula_structural       Y2IrSe6
_chemical_formula_sum              "Y2 Ir1 Se6"
_cell_length_a       6.704029056245292
_cell_length_b       6.704029017574191
_cell_length_c       6.704029075242136
_cell_angle_alpha    60.00000034840032
_cell_angle_beta     60.00000059124186
_cell_angle_gamma    60.00000073558591

_space_group_name_H-M_alt    "P 1"
_space_group_IT_number       1

loop_
  _space_group_symop_operation_xyz
  'x, y, z'

loop_
  _atom_site_type_symbol
  _atom_site_label
  _atom_site_symmetry_multiplicity
  _atom_site_fract_x
  _atom_site_fract_y
  _atom_site_fract_z
  _atom_site_occupancy
  Y   Y1        1.0  0.25000004247482627  0.2499999327902554  0.25000001819565215  1.0000
  Y   Y2        1.0  0.7499999548143964  0.7500000888444976  0.7499998599158642  1.0000
  Ir  Ir1       1.0  0.9999999857163384  0.9999999963462423  7.477069244772762e-09  1.0000
  Se  Se1       1.0  0.2555585525661642  0.2555585007654227  0.7444414855391762  1.0000
  Se  Se2       1.0  0.7444414602425662  0.7444414898123912  0.25555855994656906  1.0000
  Se  Se3       1.0  0.7444414495978426  0.25555851917998346  0.25555856363965096  1.0000
  Se  Se4       1.0  0.2555585552078579  0.7444414695709514  0.7444414718446454  1.0000
  Se  Se5       1.0  0.2555585397241544  0.7444414490596872  0.2555585564276998  1.0000
  Se  Se6       1.0  0.7444414491620419  0.25555856161379337  0.7444414730717952  1.0000
