data_image0
_chemical_formula_structural       Y2IrI6
_chemical_formula_sum              "Y2 Ir1 I6"
_cell_length_a       7.6912345588470545
_cell_length_b       7.691234512500882
_cell_length_c       7.691234343701736
_cell_angle_alpha    60.00000087771108
_cell_angle_beta     60.00000000805717
_cell_angle_gamma    59.999999759485576

_space_group_name_H-M_alt    "P 1"
_space_group_IT_number       1

loop_
  _space_group_symop_operation_xyz
  'x, y, z'

loop_
  _atom_site_type_symbol
  _atom_site_label
  _atom_site_symmetry_multiplicity
  _atom_site_fract_x
  _atom_site_fract_y
  _atom_site_fract_z
  _atom_site_occupancy
  Y   Y1        1.0  0.24999993426324665  0.25000000705817  0.2500000146503957  1.0000
  Y   Y2        1.0  0.750000047718316  0.749999957478889  0.7499999299314422  1.0000
  Ir  Ir1       1.0  0.9999999723387447  3.344020029936288e-08  0.9999999984107091  1.0000
  I   I1        1.0  0.24530314257338856  0.24530319185384192  0.7546968230847424  1.0000
  I   I2        1.0  0.7546968499772336  0.7546968220473224  0.2453031877439382  1.0000
  I   I3        1.0  0.7546968948496918  0.2453031425907367  0.24530314924506727  1.0000
  I   I4        1.0  0.24530315353861226  0.7546968299082749  0.7546968634671185  1.0000
  I   I5        1.0  0.24530313995904066  0.754696835228516  0.24530319228791786  1.0000
  I   I6        1.0  0.7546968655726658  0.245303180265039  0.7546968372576536  1.0000
