data_image0
_chemical_formula_structural       Y2IrO6
_chemical_formula_sum              "Y2 Ir1 O6"
_cell_length_a       5.377982016411825
_cell_length_b       5.377981819134602
_cell_length_c       5.3779819694075055
_cell_angle_alpha    59.99999921687341
_cell_angle_beta     59.999999386552126
_cell_angle_gamma    59.99999896544351

_space_group_name_H-M_alt    "P 1"
_space_group_IT_number       1

loop_
  _space_group_symop_operation_xyz
  'x, y, z'

loop_
  _atom_site_type_symbol
  _atom_site_label
  _atom_site_symmetry_multiplicity
  _atom_site_fract_x
  _atom_site_fract_y
  _atom_site_fract_z
  _atom_site_occupancy
  Y   Y1        1.0  0.24999996582814515  0.2499999780413079  0.25000000901722014  1.0000
  Y   Y2        1.0  0.749999982519493  0.7500000912598164  0.7500000063755956  1.0000
  Ir  Ir1       1.0  0.999999998719918  2.9605313035848433e-08  0.9999999858373846  1.0000
  O   O1        1.0  0.25181091688888013  0.2518108373441316  0.7481891382796259  1.0000
  O   O2        1.0  0.7481891468397308  0.7481891112584087  0.25181084444275736  1.0000
  O   O3        1.0  0.7481891431452243  0.25181077953832615  0.25181089763808034  1.0000
  O   O4        1.0  0.25181083404861626  0.7481892032241908  0.7481891354443362  1.0000
  O   O5        1.0  0.2518108280726548  0.7481891187527904  0.25181087088835424  1.0000
  O   O6        1.0  0.7481891938416707  0.2518108457910724  0.7481891377865455  1.0000
