data_image0
_chemical_formula_structural       Y2IrBr6
_chemical_formula_sum              "Y2 Ir1 Br6"
_cell_length_a       7.124456360864444
_cell_length_b       7.124456474871953
_cell_length_c       7.124456504958726
_cell_angle_alpha    60.00000068198958
_cell_angle_beta     60.00000059699517
_cell_angle_gamma    60.00000140885757

_space_group_name_H-M_alt    "P 1"
_space_group_IT_number       1

loop_
  _space_group_symop_operation_xyz
  'x, y, z'

loop_
  _atom_site_type_symbol
  _atom_site_label
  _atom_site_symmetry_multiplicity
  _atom_site_fract_x
  _atom_site_fract_y
  _atom_site_fract_z
  _atom_site_occupancy
  Y   Y1        1.0  0.2500000795908183  0.24999995524878907  0.24999994547183146  1.0000
  Y   Y2        1.0  0.7500001197184593  0.7499999895194994  0.7499999631885831  1.0000
  Ir  Ir1       1.0  0.9999999829413383  0.9999999879665008  4.720769316567451e-09  1.0000
  Br  Br1       1.0  0.24397666753594122  0.2439767390914893  0.7560233222975891  1.0000
  Br  Br2       1.0  0.7560232598935683  0.7560233260117876  0.2439767000328409  1.0000
  Br  Br3       1.0  0.7560232790701962  0.24397670935383756  0.24397671315382527  1.0000
  Br  Br4       1.0  0.2439766718532868  0.7560232852675165  0.7560233060018783  1.0000
  Br  Br5       1.0  0.2439767074641849  0.7560232949810445  0.2439766988091965  1.0000
  Br  Br6       1.0  0.7560232334398168  0.24397671511195124  0.7560233428855121  1.0000
