data_image0
_chemical_formula_structural       Y2IrBr6
_chemical_formula_sum              "Y2 Ir1 Br6"
_cell_length_a       7.126585117462739
_cell_length_b       7.126585492499872
_cell_length_c       7.126585172601636
_cell_angle_alpha    60.00000050919886
_cell_angle_beta     59.99999957942613
_cell_angle_gamma    59.999999101899775

_space_group_name_H-M_alt    "P 1"
_space_group_IT_number       1

loop_
  _space_group_symop_operation_xyz
  'x, y, z'

loop_
  _atom_site_type_symbol
  _atom_site_label
  _atom_site_symmetry_multiplicity
  _atom_site_fract_x
  _atom_site_fract_y
  _atom_site_fract_z
  _atom_site_occupancy
  Y   Y1        1.0  0.25000003958043343  0.2499998740886347  0.2500000948515179  1.0000
  Y   Y2        1.0  0.7499998995550757  0.7500000708094803  0.7500000014922841  1.0000
  Ir  Ir1       1.0  1.351816453871668e-08  2.749692352986026e-08  0.9999999780892591  1.0000
  Br  Br1       1.0  0.24394328947698163  0.2439432436124636  0.7560567057303876  1.0000
  Br  Br2       1.0  0.7560567021277769  0.7560567820578648  0.24394325944563938  1.0000
  Br  Br3       1.0  0.7560568081304262  0.24394320916881884  0.24394319164492462  1.0000
  Br  Br4       1.0  0.24394323620760633  0.7560567701004496  0.7560567605426196  1.0000
  Br  Br5       1.0  0.24394320990692264  0.7560568029430673  0.24394322721365577  1.0000
  Br  Br6       1.0  0.7560567974259883  0.2439432192901447  0.7560567795255375  1.0000
