data_image0
_chemical_formula_structural       Y2IrCl6
_chemical_formula_sum              "Y2 Ir1 Cl6"
_cell_length_a       6.856727148373649
_cell_length_b       6.856727200295621
_cell_length_c       6.856727286736308
_cell_angle_alpha    60.00000158606558
_cell_angle_beta     60.000001982264926
_cell_angle_gamma    60.00000187625591

_space_group_name_H-M_alt    "P 1"
_space_group_IT_number       1

loop_
  _space_group_symop_operation_xyz
  'x, y, z'

loop_
  _atom_site_type_symbol
  _atom_site_label
  _atom_site_symmetry_multiplicity
  _atom_site_fract_x
  _atom_site_fract_y
  _atom_site_fract_z
  _atom_site_occupancy
  Y   Y1        1.0  0.25000010193076994  0.24999986430810883  0.2500001243530443  1.0000
  Y   Y2        1.0  0.7499996876964161  0.7500007146544738  0.7500000541546116  1.0000
  Ir  Ir1       1.0  0.9999999959694195  0.9999999464141642  0.9999999923476642  1.0000
  Cl  Cl1       1.0  0.24413094783002007  0.24413068552013978  0.7558691427992075  1.0000
  Cl  Cl2       1.0  0.7558691246258009  0.7558691914679964  0.24413076837744713  1.0000
  Cl  Cl3       1.0  0.7558691257900573  0.2441307091333162  0.24413095077333444  1.0000
  Cl  Cl4       1.0  0.24413093751596374  0.7558690588969559  0.7558690967535014  1.0000
  Cl  Cl5       1.0  0.24413089714944983  0.7558691238483878  0.24413082023292618  1.0000
  Cl  Cl6       1.0  0.7558691841527145  0.2441307013401066  0.7558690438745561  1.0000
