data_image0
_chemical_formula_structural       Y2MnCl6
_chemical_formula_sum              "Y2 Mn1 Cl6"
_cell_length_a       6.675682771000148
_cell_length_b       6.67568265219753
_cell_length_c       6.6756825545069445
_cell_angle_alpha    59.99999769706364
_cell_angle_beta     59.99999595085934
_cell_angle_gamma    59.999995372326026

_space_group_name_H-M_alt    "P 1"
_space_group_IT_number       1

loop_
  _space_group_symop_operation_xyz
  'x, y, z'

loop_
  _atom_site_type_symbol
  _atom_site_label
  _atom_site_symmetry_multiplicity
  _atom_site_fract_x
  _atom_site_fract_y
  _atom_site_fract_z
  _atom_site_occupancy
  Y   Y1        1.0  0.25000019971556287  0.24999975916011874  0.25000020825714503  1.0000
  Y   Y2        1.0  0.7499998563864979  0.7500001617750366  0.7500000357051394  1.0000
  Mn  Mn1       1.0  0.9999999746658697  0.9999999981653641  4.9535764111325294e-08  1.0000
  Cl  Cl1       1.0  0.2465414570261152  0.24654119419272685  0.7534586140400082  1.0000
  Cl  Cl2       1.0  0.753458508711261  0.7534587487580702  0.24654128510933684  1.0000
  Cl  Cl3       1.0  0.7534586191465096  0.24654135350962364  0.24654134333258707  1.0000
  Cl  Cl4       1.0  0.24654134001970093  0.7534586921807997  0.7534586335623557  1.0000
  Cl  Cl5       1.0  0.24654131045738173  0.7534587607630362  0.24654130898741047  1.0000
  Cl  Cl6       1.0  0.7534587227536548  0.24654133262792746  0.7534585156584214  1.0000
