data_image0
_chemical_formula_structural       Y2MnO6
_chemical_formula_sum              "Y2 Mn1 O6"
_cell_length_a       5.182454044930507
_cell_length_b       5.182454872756205
_cell_length_c       5.1824541554635415
_cell_angle_alpha    60.00000258089901
_cell_angle_beta     60.00000047893053
_cell_angle_gamma    60.00000122674744

_space_group_name_H-M_alt    "P 1"
_space_group_IT_number       1

loop_
  _space_group_symop_operation_xyz
  'x, y, z'

loop_
  _atom_site_type_symbol
  _atom_site_label
  _atom_site_symmetry_multiplicity
  _atom_site_fract_x
  _atom_site_fract_y
  _atom_site_fract_z
  _atom_site_occupancy
  Y   Y1        1.0  0.24999996194001303  0.25000004674750875  0.2499999405291452  1.0000
  Y   Y2        1.0  0.7500000856073124  0.7500000622551913  0.7499998976881992  1.0000
  Mn  Mn1       1.0  0.9999999487306028  4.0175290173451086e-08  7.476640164064034e-09  1.0000
  O   O1        1.0  0.2522051359903046  0.252205042016274  0.7477949045334366  1.0000
  O   O2        1.0  0.7477949398040853  0.7477949488238078  0.25220511950159186  1.0000
  O   O3        1.0  0.7477949737270514  0.2522049480101379  0.2522050674864064  1.0000
  O   O4        1.0  0.2522050631124229  0.7477948655860261  0.7477950183379352  1.0000
  O   O5        1.0  0.2522049478149736  0.7477949664672814  0.25220510560581666  1.0000
  O   O6        1.0  0.7477949511488886  0.25220506691134675  0.7477949932935511  1.0000
