data_image0
_chemical_formula_structural       Y2MnF6
_chemical_formula_sum              "Y2 Mn1 F6"
_cell_length_a       5.45583860990084
_cell_length_b       5.455838657811749
_cell_length_c       5.455838883084948
_cell_angle_alpha    60.00000029192698
_cell_angle_beta     59.999997668566124
_cell_angle_gamma    60.000007720269885

_space_group_name_H-M_alt    "P 1"
_space_group_IT_number       1

loop_
  _space_group_symop_operation_xyz
  'x, y, z'

loop_
  _atom_site_type_symbol
  _atom_site_label
  _atom_site_symmetry_multiplicity
  _atom_site_fract_x
  _atom_site_fract_y
  _atom_site_fract_z
  _atom_site_occupancy
  Y   Y1        1.0  0.2500001269967468  0.2499999040581925  0.25000015833902905  1.0000
  Y   Y2        1.0  0.7500000677777884  0.7499996740123719  0.7500000953361106  1.0000
  Mn  Mn1       1.0  0.9999999982907238  0.9999999416343354  8.319153198615209e-08  1.0000
  F   F1        1.0  0.25199075642772184  0.251990875513205  0.7480089928812627  1.0000
  F   F2        1.0  0.7480089923223417  0.7480092660104749  0.2519911324294139  1.0000
  F   F3        1.0  0.7480090573781798  0.2519910309094285  0.2519907393678157  1.0000
  F   F4        1.0  0.2519909332009212  0.7480092295904325  0.7480089654305224  1.0000
  F   F5        1.0  0.2519908979695529  0.7480090977823498  0.25199094101268005  1.0000
  F   F6        1.0  0.7480091421022262  0.25199104598618627  0.7480089037131039  1.0000
