data_image0
_chemical_formula_structural       Y2MnI6
_chemical_formula_sum              "Y2 Mn1 I6"
_cell_length_a       7.73225195337695
_cell_length_b       7.732251840637385
_cell_length_c       7.732251947767769
_cell_angle_alpha    59.99999907370085
_cell_angle_beta     59.9999997840203
_cell_angle_gamma    59.999999605624026

_space_group_name_H-M_alt    "P 1"
_space_group_IT_number       1

loop_
  _space_group_symop_operation_xyz
  'x, y, z'

loop_
  _atom_site_type_symbol
  _atom_site_label
  _atom_site_symmetry_multiplicity
  _atom_site_fract_x
  _atom_site_fract_y
  _atom_site_fract_z
  _atom_site_occupancy
  Y   Y1        1.0  0.2500000094381178  0.2500001998263493  0.24999989482116025  1.0000
  Y   Y2        1.0  0.7499999269864018  0.7500000656901401  0.750000013661471  1.0000
  Mn  Mn1       1.0  6.560907794187255e-09  4.7518300378297116e-08  0.9999999729603958  1.0000
  I   I1        1.0  0.2508508650518113  0.2508508639076644  0.7491491409332289  1.0000
  I   I2        1.0  0.7491491562742046  0.7491490214624225  0.25085091129200376  1.0000
  I   I3        1.0  0.7491491024999892  0.25085085903787735  0.25085088542800144  1.0000
  I   I4        1.0  0.25085091626116585  0.7491490564271331  0.7491491388060726  1.0000
  I   I5        1.0  0.2508509159513741  0.7491490475312048  0.2508508991164252  1.0000
  I   I6        1.0  0.7491490999291985  0.2508508362549389  0.7491491488637949  1.0000
