data_image0
_chemical_formula_structural       Y2MnBr6
_chemical_formula_sum              "Y2 Mn1 Br6"
_cell_length_a       6.912751867478608
_cell_length_b       6.91275185624875
_cell_length_c       6.912752090432143
_cell_angle_alpha    59.999997366388996
_cell_angle_beta     59.999997746070775
_cell_angle_gamma    59.999999325980205

_space_group_name_H-M_alt    "P 1"
_space_group_IT_number       1

loop_
  _space_group_symop_operation_xyz
  'x, y, z'

loop_
  _atom_site_type_symbol
  _atom_site_label
  _atom_site_symmetry_multiplicity
  _atom_site_fract_x
  _atom_site_fract_y
  _atom_site_fract_z
  _atom_site_occupancy
  Y   Y1        1.0  0.2500001289796552  0.25000009389282035  0.24999985088266163  1.0000
  Y   Y2        1.0  0.7500001756331343  0.7499998582377834  0.7499999061862925  1.0000
  Mn  Mn1       1.0  0.9999999935558533  0.9999999291312677  4.733605151356416e-08  1.0000
  Br  Br1       1.0  0.2408503868985395  0.240850492968606  0.7591495796815437  1.0000
  Br  Br2       1.0  0.7591494807604557  0.7591496274752293  0.24085047372710142  1.0000
  Br  Br3       1.0  0.7591495269045626  0.24085049353416693  0.2408504856306439  1.0000
  Br  Br4       1.0  0.24085042181339816  0.7591494639115861  0.7591495465436809  1.0000
  Br  Br5       1.0  0.24085039523358748  0.759149527171298  0.24085057676888671  1.0000
  Br  Br6       1.0  0.7591494715830095  0.2408505206320865  0.7591495437598226  1.0000
