data_image0
_chemical_formula_structural       Y2MnTe6
_chemical_formula_sum              "Y2 Mn1 Te6"
_cell_length_a       7.068294150019321
_cell_length_b       7.068294250117901
_cell_length_c       7.068294444264842
_cell_angle_alpha    59.99999961765919
_cell_angle_beta     59.99999980783941
_cell_angle_gamma    60.0000009409614

_space_group_name_H-M_alt    "P 1"
_space_group_IT_number       1

loop_
  _space_group_symop_operation_xyz
  'x, y, z'

loop_
  _atom_site_type_symbol
  _atom_site_label
  _atom_site_symmetry_multiplicity
  _atom_site_fract_x
  _atom_site_fract_y
  _atom_site_fract_z
  _atom_site_occupancy
  Y   Y1        1.0  0.2499999027777357  0.2499999680713595  0.2500001750292328  1.0000
  Y   Y2        1.0  0.7500000023193077  0.7500000220397518  0.7499998947512782  1.0000
  Mn  Mn1       1.0  2.0300197285699464e-09  0.9999999792072346  1.079614123213743e-08  1.0000
  Te  Te1       1.0  0.25160374937635155  0.251603810130919  0.7483962313854067  1.0000
  Te  Te2       1.0  0.7483962595795907  0.748396216367533  0.251603790908281  1.0000
  Te  Te3       1.0  0.7483962444571196  0.2516037422236461  0.25160377845135873  1.0000
  Te  Te4       1.0  0.2516037893997173  0.7483962634820404  0.748396206419053  1.0000
  Te  Te5       1.0  0.25160375817094693  0.7483962315534478  0.2516037504055987  1.0000
  Te  Te6       1.0  0.748396294332536  0.25160376722131716  0.7483961493799175  1.0000
