data_image0
_chemical_formula_structural       Y2MnS6
_chemical_formula_sum              "Y2 Mn1 S6"
_cell_length_a       6.2168178051256655
_cell_length_b       6.216817487571822
_cell_length_c       6.216817280411829
_cell_angle_alpha    60.00000126434641
_cell_angle_beta     60.00000178303437
_cell_angle_gamma    60.00000004451827

_space_group_name_H-M_alt    "P 1"
_space_group_IT_number       1

loop_
  _space_group_symop_operation_xyz
  'x, y, z'

loop_
  _atom_site_type_symbol
  _atom_site_label
  _atom_site_symmetry_multiplicity
  _atom_site_fract_x
  _atom_site_fract_y
  _atom_site_fract_z
  _atom_site_occupancy
  Y   Y1        1.0  0.24999989501450082  0.249999948976855  0.25000014392972625  1.0000
  Y   Y2        1.0  0.7500001021077642  0.7499999887742487  0.7499999094456452  1.0000
  Mn  Mn1       1.0  1.7917135907752723e-08  1.9700511112739673e-09  0.9999999787966255  1.0000
  S   S1        1.0  0.24925203327889583  0.2492520790018752  0.7507479550663192  1.0000
  S   S2        1.0  0.7507479964875593  0.7507479001203037  0.24925212403448402  1.0000
  S   S3        1.0  0.7507478859454612  0.24925209902854345  0.24925201158666965  1.0000
  S   S4        1.0  0.24925200892413965  0.7507480061769103  0.7507479062412923  1.0000
  S   S5        1.0  0.249252028776998  0.7507479284816884  0.24925208618145486  1.0000
  S   S6        1.0  0.7507480301635552  0.24925204670038748  0.7507478564447616  1.0000
