data_image0
_chemical_formula_structural       Y2MnSe6
_chemical_formula_sum              "Y2 Mn1 Se6"
_cell_length_a       6.619087775364037
_cell_length_b       6.619087360733625
_cell_length_c       6.619087617815268
_cell_angle_alpha    59.9999990693757
_cell_angle_beta     59.99999899648791
_cell_angle_gamma    59.99999840010056

_space_group_name_H-M_alt    "P 1"
_space_group_IT_number       1

loop_
  _space_group_symop_operation_xyz
  'x, y, z'

loop_
  _atom_site_type_symbol
  _atom_site_label
  _atom_site_symmetry_multiplicity
  _atom_site_fract_x
  _atom_site_fract_y
  _atom_site_fract_z
  _atom_site_occupancy
  Y   Y1        1.0  0.24999991275077757  0.250000059809598  0.2500000716016553  1.0000
  Y   Y2        1.0  0.7500000307511688  0.74999993518617  0.7500000501741074  1.0000
  Mn  Mn1       1.0  0.9999999872775421  0.9999999962993532  0.9999999205861827  1.0000
  Se  Se1       1.0  0.24944159665760932  0.24944163589878268  0.750558391918928  1.0000
  Se  Se2       1.0  0.7505584522369972  0.7505583516956927  0.249441602300473  1.0000
  Se  Se3       1.0  0.7505583607544795  0.24944162988708946  0.24944155215592245  1.0000
  Se  Se4       1.0  0.24944160683486166  0.7505584132170728  0.7505584096378022  1.0000
  Se  Se5       1.0  0.24944162312428325  0.7505583967119436  0.2494415562578018  1.0000
  Se  Se6       1.0  0.7505584416824767  0.24944157978059447  0.7505584264917977  1.0000
