data_image0
_chemical_formula_structural       Y2MoCl6
_chemical_formula_sum              "Y2 Mo1 Cl6"
_cell_length_a       6.791883139272449
_cell_length_b       6.7918833185618475
_cell_length_c       6.791883261383858
_cell_angle_alpha    59.99999953434567
_cell_angle_beta     59.99999950362532
_cell_angle_gamma    59.999997080299664

_space_group_name_H-M_alt    "P 1"
_space_group_IT_number       1

loop_
  _space_group_symop_operation_xyz
  'x, y, z'

loop_
  _atom_site_type_symbol
  _atom_site_label
  _atom_site_symmetry_multiplicity
  _atom_site_fract_x
  _atom_site_fract_y
  _atom_site_fract_z
  _atom_site_occupancy
  Y   Y1        1.0  0.24999954864042248  0.24999985369883446  0.25000030781481103  1.0000
  Y   Y2        1.0  0.7500003776462911  0.7500000732188276  0.7499998810274244  1.0000
  Mo  Mo1       1.0  0.9999999953975979  3.6064957583491564e-09  7.859681582627485e-09  1.0000
  Cl  Cl1       1.0  0.2527060655318975  0.252706221252419  0.7472938846176912  1.0000
  Cl  Cl2       1.0  0.7472938994950653  0.7472938138601128  0.2527060776330332  1.0000
  Cl  Cl3       1.0  0.7472939172152847  0.25270620277512645  0.25270615967546106  1.0000
  Cl  Cl4       1.0  0.2527060321658337  0.7472939098770627  0.7472937819347762  1.0000
  Cl  Cl5       1.0  0.25270615617086045  0.7472938475129397  0.25270612044948876  1.0000
  Cl  Cl6       1.0  0.7472940140401271  0.2527060667819808  0.7472937495582764  1.0000
