data_image0
_chemical_formula_structural       Y2MoCl6
_chemical_formula_sum              "Y2 Mo1 Cl6"
_cell_length_a       6.792071786084118
_cell_length_b       6.792072557838843
_cell_length_c       6.79207114906503
_cell_angle_alpha    59.99999961864141
_cell_angle_beta     60.00000198873558
_cell_angle_gamma    59.99999862307164

_space_group_name_H-M_alt    "P 1"
_space_group_IT_number       1

loop_
  _space_group_symop_operation_xyz
  'x, y, z'

loop_
  _atom_site_type_symbol
  _atom_site_label
  _atom_site_symmetry_multiplicity
  _atom_site_fract_x
  _atom_site_fract_y
  _atom_site_fract_z
  _atom_site_occupancy
  Y   Y1        1.0  0.25000001114906417  0.2499997066139036  0.2500004220685541  1.0000
  Y   Y2        1.0  0.7499995382456993  0.7500001260260665  0.7499998755670606  1.0000
  Mo  Mo1       1.0  1.222757218644881e-08  0.9999999531168607  4.088466528959401e-08  1.0000
  Cl  Cl1       1.0  0.2527018039729023  0.2527016274985068  0.7472982286908473  1.0000
  Cl  Cl2       1.0  0.747298074201361  0.7472984377539408  0.25270175291344443  1.0000
  Cl  Cl3       1.0  0.7472982696957152  0.2527018711465888  0.25270165503609326  1.0000
  Cl  Cl4       1.0  0.25270203478390246  0.7472982157442037  0.7472982247976551  1.0000
  Cl  Cl5       1.0  0.2527017728590428  0.7472982939411279  0.25270171037276584  1.0000
  Cl  Cl6       1.0  0.747298512731231  0.25270177311450126  0.7472980710388412  1.0000
