data_image0
_chemical_formula_structural       Y2MoBr6
_chemical_formula_sum              "Y2 Mo1 Br6"
_cell_length_a       7.166541746720019
_cell_length_b       7.166542041476384
_cell_length_c       7.1665420238215605
_cell_angle_alpha    59.99999930726045
_cell_angle_beta     59.99999868083081
_cell_angle_gamma    60.00000177650614

_space_group_name_H-M_alt    "P 1"
_space_group_IT_number       1

loop_
  _space_group_symop_operation_xyz
  'x, y, z'

loop_
  _atom_site_type_symbol
  _atom_site_label
  _atom_site_symmetry_multiplicity
  _atom_site_fract_x
  _atom_site_fract_y
  _atom_site_fract_z
  _atom_site_occupancy
  Y   Y1        1.0  0.25000001955705736  0.2500000181485526  0.25000003794764775  1.0000
  Y   Y2        1.0  0.7500000205097841  0.749999830569797  0.7500000899751542  1.0000
  Mo  Mo1       1.0  7.089447847579289e-08  1.745290336715713e-15  0.9999999171100743  1.0000
  Br  Br1       1.0  0.2536833434725644  0.2536832657201817  0.7463166472618035  1.0000
  Br  Br2       1.0  0.7463167237060093  0.7463167385149893  0.2536832595770219  1.0000
  Br  Br3       1.0  0.7463167085159734  0.2536833249802717  0.25368323380522684  1.0000
  Br  Br4       1.0  0.25368321047612424  0.7463167612857455  0.7463167898337995  1.0000
  Br  Br5       1.0  0.2536831558589796  0.74631683389391  0.2536831761981852  1.0000
  Br  Br6       1.0  0.7463167492184012  0.2536832216105385  0.7463168516391336  1.0000
