data_image0
_chemical_formula_structural       Y2MoO6
_chemical_formula_sum              "Y2 Mo1 O6"
_cell_length_a       5.366504539714669
_cell_length_b       5.366504529898663
_cell_length_c       5.366504480597621
_cell_angle_alpha    59.999999417277266
_cell_angle_beta     59.999999540091906
_cell_angle_gamma    59.99999953674914

_space_group_name_H-M_alt    "P 1"
_space_group_IT_number       1

loop_
  _space_group_symop_operation_xyz
  'x, y, z'

loop_
  _atom_site_type_symbol
  _atom_site_label
  _atom_site_symmetry_multiplicity
  _atom_site_fract_x
  _atom_site_fract_y
  _atom_site_fract_z
  _atom_site_occupancy
  Y   Y1        1.0  0.2499998686549119  0.24999992721357325  0.2500001267286418  1.0000
  Y   Y2        1.0  0.7500002320814897  0.749999820438157  0.7500001390359327  1.0000
  Mo  Mo1       1.0  3.5840235635807727e-08  0.9999999634847638  0.9999999928838589  1.0000
  O   O1        1.0  0.25249416892874016  0.2524943411507701  0.7475057546279129  1.0000
  O   O2        1.0  0.7475057522558661  0.7475057579601112  0.2524941456714299  1.0000
  O   O3        1.0  0.7475057664961033  0.2524942740367532  0.252494183461566  1.0000
  O   O4        1.0  0.25249415240630085  0.7475058319207349  0.7475057145555745  1.0000
  O   O5        1.0  0.25249427536798424  0.7475058239431583  0.25249418179048166  1.0000
  O   O6        1.0  0.7475057555523489  0.25249427516772227  0.7475057474944634  1.0000
