data_image0
_chemical_formula_structural       Y2MoS6
_chemical_formula_sum              "Y2 Mo1 S6"
_cell_length_a       6.359818961007746
_cell_length_b       6.3598191006364395
_cell_length_c       6.359819029305479
_cell_angle_alpha    59.99999899533172
_cell_angle_beta     59.999999639993035
_cell_angle_gamma    59.999998978100145

_space_group_name_H-M_alt    "P 1"
_space_group_IT_number       1

loop_
  _space_group_symop_operation_xyz
  'x, y, z'

loop_
  _atom_site_type_symbol
  _atom_site_label
  _atom_site_symmetry_multiplicity
  _atom_site_fract_x
  _atom_site_fract_y
  _atom_site_fract_z
  _atom_site_occupancy
  Y   Y1        1.0  0.24999995943428935  0.25000002395082144  0.2500000678625425  1.0000
  Y   Y2        1.0  0.7499999594204741  0.7499999755647531  0.7499999910406311  1.0000
  Mo  Mo1       1.0  8.52741424573872e-09  2.8886313726783404e-08  6.451084274652795e-09  1.0000
  S   S1        1.0  0.2589440618421508  0.2589440374001839  0.7410558958982678  1.0000
  S   S2        1.0  0.7410559027145874  0.741055977521426  0.2589440318191061  1.0000
  S   S3        1.0  0.7410559650083454  0.2589440905799548  0.258944017699488  1.0000
  S   S4        1.0  0.2589441473844485  0.7410558839008125  0.7410559459454715  1.0000
  S   S5        1.0  0.25894400996005257  0.7410559857726842  0.2589440913757616  1.0000
  S   S6        1.0  0.7410559876082281  0.25894401181713494  0.7410559527191077  1.0000
