data_image0
_chemical_formula_structural       Y2MoSe6
_chemical_formula_sum              "Y2 Mo1 Se6"
_cell_length_a       6.738839875172843
_cell_length_b       6.738839923456406
_cell_length_c       6.738839823671826
_cell_angle_alpha    60.00000118402966
_cell_angle_beta     60.000001490707184
_cell_angle_gamma    59.999999617826234

_space_group_name_H-M_alt    "P 1"
_space_group_IT_number       1

loop_
  _space_group_symop_operation_xyz
  'x, y, z'

loop_
  _atom_site_type_symbol
  _atom_site_label
  _atom_site_symmetry_multiplicity
  _atom_site_fract_x
  _atom_site_fract_y
  _atom_site_fract_z
  _atom_site_occupancy
  Y   Y1        1.0  0.24999997339993146  0.24999998700462872  0.25000004246690416  1.0000
  Y   Y2        1.0  0.7499999813839386  0.749999957379002  0.7500001179172374  1.0000
  Mo  Mo1       1.0  1.310218962014269e-08  1.8174414393634095e-09  0.9999999762169001  1.0000
  Se  Se1       1.0  0.2588488501530328  0.2588488576161025  0.7411511552859745  1.0000
  Se  Se2       1.0  0.7411511272864393  0.7411511267512447  0.2588488491279716  1.0000
  Se  Se3       1.0  0.7411512119691123  0.25884884224386756  0.25884874207094005  1.0000
  Se  Se4       1.0  0.2588488403268397  0.7411512002816125  0.7411511617051968  1.0000
  Se  Se5       1.0  0.25884880931136445  0.7411512187339747  0.258848757624806  1.0000
  Se  Se6       1.0  0.7411511959242123  0.2588488056170893  0.7411511995438151  1.0000
