data_image0
_chemical_formula_structural       Y2MoF6
_chemical_formula_sum              "Y2 Mo1 F6"
_cell_length_a       5.28686085828121
_cell_length_b       5.286860820579022
_cell_length_c       5.286861116742846
_cell_angle_alpha    59.999999873383096
_cell_angle_beta     59.99999658865413
_cell_angle_gamma    60.00000147970334

_space_group_name_H-M_alt    "P 1"
_space_group_IT_number       1

loop_
  _space_group_symop_operation_xyz
  'x, y, z'

loop_
  _atom_site_type_symbol
  _atom_site_label
  _atom_site_symmetry_multiplicity
  _atom_site_fract_x
  _atom_site_fract_y
  _atom_site_fract_z
  _atom_site_occupancy
  Y   Y1        1.0  0.249999595777146  0.24999975605743888  0.2500002656269387  1.0000
  Y   Y2        1.0  0.7499999032142918  0.7500000419108594  0.7499999258378911  1.0000
  Mo  Mo1       1.0  0.9999999775836438  1.0656278705628475e-07  0.9999998992908598  1.0000
  F   F1        1.0  0.2811580536887643  0.2811578145233232  0.7188421041958422  1.0000
  F   F2        1.0  0.7188422234989822  0.7188421780379236  0.2811579640387994  1.0000
  F   F3        1.0  0.7188423153149989  0.2811578592006321  0.2811577579491981  1.0000
  F   F4        1.0  0.2811579022170221  0.7188422074912467  0.7188422103653985  1.0000
  F   F5        1.0  0.28115787298392697  0.7188422075405663  0.28115769553548736  1.0000
  F   F6        1.0  0.7188421256086629  0.28115788695029037  0.7188421716352629  1.0000
