data_image0
_chemical_formula_structural       Y2MoF6
_chemical_formula_sum              "Y2 Mo1 F6"
_cell_length_a       5.28651733304861
_cell_length_b       5.286516901338222
_cell_length_c       5.286517615181829
_cell_angle_alpha    59.99999252898576
_cell_angle_beta     59.999993905069765
_cell_angle_gamma    59.99998906381821

_space_group_name_H-M_alt    "P 1"
_space_group_IT_number       1

loop_
  _space_group_symop_operation_xyz
  'x, y, z'

loop_
  _atom_site_type_symbol
  _atom_site_label
  _atom_site_symmetry_multiplicity
  _atom_site_fract_x
  _atom_site_fract_y
  _atom_site_fract_z
  _atom_site_occupancy
  Y   Y1        1.0  0.2499997228931851  0.25000007477654695  0.250000329890028  1.0000
  Y   Y2        1.0  0.750000139487414  0.7500007062101289  0.7500000098508779  1.0000
  Mo  Mo1       1.0  9.586024514110387e-08  2.0387252916629462e-07  0.9999998671580447  1.0000
  F   F1        1.0  0.2811623123403065  0.281161888483313  0.7188376295496699  1.0000
  F   F2        1.0  0.7188382462560522  0.718837852290069  0.2811618645068349  1.0000
  F   F3        1.0  0.7188381941399118  0.281161472209357  0.2811625051577654  1.0000
  F   F4        1.0  0.2811615902448021  0.7188382060122616  0.7188377193951968  1.0000
  F   F5        1.0  0.28116146015258525  0.7188379983013788  0.2811625170173164  1.0000
  F   F6        1.0  0.7188382340614141  0.2811616359023158  0.718837498455726  1.0000
