data_image0
_chemical_formula_structural       Y2MoI6
_chemical_formula_sum              "Y2 Mo1 I6"
_cell_length_a       7.81820873352373
_cell_length_b       7.818208484598868
_cell_length_c       7.8182086311940555
_cell_angle_alpha    60.00000022904333
_cell_angle_beta     59.99999929115841
_cell_angle_gamma    59.9999992576939

_space_group_name_H-M_alt    "P 1"
_space_group_IT_number       1

loop_
  _space_group_symop_operation_xyz
  'x, y, z'

loop_
  _atom_site_type_symbol
  _atom_site_label
  _atom_site_symmetry_multiplicity
  _atom_site_fract_x
  _atom_site_fract_y
  _atom_site_fract_z
  _atom_site_occupancy
  Y   Y1        1.0  0.25000000312870824  0.24999993084757305  0.2500000893012516  1.0000
  Y   Y2        1.0  0.7500000359837345  0.7499999209980783  0.7500000356103599  1.0000
  Mo  Mo1       1.0  1.4955715520341562e-07  8.302602558028286e-08  0.9999998632433628  1.0000
  I   I1        1.0  0.25266259612065095  0.25266269996314167  0.7473373691537534  1.0000
  I   I2        1.0  0.7473372467663958  0.747337244307708  0.2526627296349711  1.0000
  I   I3        1.0  0.7473373429758448  0.2526626404968698  0.25266262828907315  1.0000
  I   I4        1.0  0.25266266605766374  0.7473373946326489  0.7473372806019468  1.0000
  I   I5        1.0  0.2526626852084734  0.7473373188083617  0.2526626830187404  1.0000
  I   I6        1.0  0.747337273578416  0.2526627695831376  0.747337319015438  1.0000
