data_image0
_chemical_formula_structural       Y2MoI6
_chemical_formula_sum              "Y2 Mo1 I6"
_cell_length_a       7.818284565740407
_cell_length_b       7.818284789298544
_cell_length_c       7.81828468158876
_cell_angle_alpha    59.999999514827906
_cell_angle_beta     59.99999973323319
_cell_angle_gamma    59.99999903681504

_space_group_name_H-M_alt    "P 1"
_space_group_IT_number       1

loop_
  _space_group_symop_operation_xyz
  'x, y, z'

loop_
  _atom_site_type_symbol
  _atom_site_label
  _atom_site_symmetry_multiplicity
  _atom_site_fract_x
  _atom_site_fract_y
  _atom_site_fract_z
  _atom_site_occupancy
  Y   Y1        1.0  0.25000005507262685  0.2500001381889784  0.24999990319101043  1.0000
  Y   Y2        1.0  0.7499999819542564  0.7499998788193155  0.7500000665205507  1.0000
  Mo  Mo1       1.0  4.325807693049668e-09  3.13302701700655e-08  0.9999999885672255  1.0000
  I   I1        1.0  0.2526634823725723  0.25266357820478597  0.7473364745332978  1.0000
  I   I2        1.0  0.7473364852542943  0.7473364121727795  0.25266353168215977  1.0000
  I   I3        1.0  0.7473364591828497  0.25266355424330716  0.25266348092831725  1.0000
  I   I4        1.0  0.25266355554174824  0.7473364189026087  0.7473365244236817  1.0000
  I   I5        1.0  0.2526635476668787  0.7473364214634828  0.25266350383971914  1.0000
  I   I6        1.0  0.7473364318649635  0.2526635642145416  0.7473365230750267  1.0000
