data_image0
_chemical_formula_structural       Y2MoBr6
_chemical_formula_sum              "Y2 Mo1 Br6"
_cell_length_a       7.1666515286311885
_cell_length_b       7.166651281137942
_cell_length_c       7.166651202280064
_cell_angle_alpha    60.00000099108381
_cell_angle_beta     59.9999982091105
_cell_angle_gamma    60.00000171173813

_space_group_name_H-M_alt    "P 1"
_space_group_IT_number       1

loop_
  _space_group_symop_operation_xyz
  'x, y, z'

loop_
  _atom_site_type_symbol
  _atom_site_label
  _atom_site_symmetry_multiplicity
  _atom_site_fract_x
  _atom_site_fract_y
  _atom_site_fract_z
  _atom_site_occupancy
  Y   Y1        1.0  0.24999989183917146  0.25000000170126463  0.2499999308162172  1.0000
  Y   Y2        1.0  0.7499998393055183  0.750000146946653  0.7500000191689192  1.0000
  Mo  Mo1       1.0  2.3777253650195566e-08  2.0507401671356205e-08  5.18113197947646e-08  1.0000
  Br  Br1       1.0  0.2536839450123143  0.2536837062142997  0.7463162163912271  1.0000
  Br  Br2       1.0  0.74631626627973  0.7463161040615384  0.25368385386946135  1.0000
  Br  Br3       1.0  0.7463162453071928  0.25368378310996875  0.2536838588974968  1.0000
  Br  Br4       1.0  0.2536838247006466  0.7463161416655122  0.74631612149944  1.0000
  Br  Br5       1.0  0.25368381031510673  0.7463161952566468  0.2536838430702657  1.0000
  Br  Br6       1.0  0.7463161480442155  0.25368389528697904  0.7463161186389718  1.0000
