data_image0
_chemical_formula_structural       Y2NbTe6
_chemical_formula_sum              "Y2 Nb1 Te6"
_cell_length_a       7.313999823956083
_cell_length_b       7.313999805374797
_cell_length_c       7.313999791922836
_cell_angle_alpha    60.00000046024051
_cell_angle_beta     60.00000049361983
_cell_angle_gamma    60.00000039990456

_space_group_name_H-M_alt    "P 1"
_space_group_IT_number       1

loop_
  _space_group_symop_operation_xyz
  'x, y, z'

loop_
  _atom_site_type_symbol
  _atom_site_label
  _atom_site_symmetry_multiplicity
  _atom_site_fract_x
  _atom_site_fract_y
  _atom_site_fract_z
  _atom_site_occupancy
  Y   Y1        1.0  0.24999998818991637  0.24999998763539968  0.24999997303580176  1.0000
  Y   Y2        1.0  0.7500000089170987  0.7500000382596592  0.749999982308686  1.0000
  Nb  Nb1       1.0  5.023563880266433e-09  0.999999984929308  0.9999999735770223  1.0000
  Te  Te1       1.0  0.2621848287494921  0.2621847709535489  0.7378152068369558  1.0000
  Te  Te2       1.0  0.7378151669867352  0.7378152164275196  0.2621848108343904  1.0000
  Te  Te3       1.0  0.7378152260647456  0.26218477088861736  0.262184805817033  1.0000
  Te  Te4       1.0  0.2621847579662637  0.7378152231905365  0.737815247171662  1.0000
  Te  Te5       1.0  0.26218480695722585  0.7378152132912067  0.26218479845332343  1.0000
  Te  Te6       1.0  0.7378152147723408  0.262184790835075  0.7378152033177103  1.0000
