data_image0
_chemical_formula_structural       Y2NbCl6
_chemical_formula_sum              "Y2 Nb1 Cl6"
_cell_length_a       6.595960511098919
_cell_length_b       6.5959608459388575
_cell_length_c       6.595960265733737
_cell_angle_alpha    59.99999900773225
_cell_angle_beta     59.999995871674216
_cell_angle_gamma    59.999998318945195

_space_group_name_H-M_alt    "P 1"
_space_group_IT_number       1

loop_
  _space_group_symop_operation_xyz
  'x, y, z'

loop_
  _atom_site_type_symbol
  _atom_site_label
  _atom_site_symmetry_multiplicity
  _atom_site_fract_x
  _atom_site_fract_y
  _atom_site_fract_z
  _atom_site_occupancy
  Y   Y1        1.0  0.2500000242921692  0.2499995844000083  0.2500002702027247  1.0000
  Y   Y2        1.0  0.7499999628265321  0.7500003017799157  0.7499998472543792  1.0000
  Nb  Nb1       1.0  8.694527113682788e-08  1.2254948696443183e-07  0.99999984825415  1.0000
  Cl  Cl1       1.0  0.26034494633828503  0.26034488801212574  0.7396550561536747  1.0000
  Cl  Cl2       1.0  0.739655070856376  0.7396551652807358  0.2603449202587492  1.0000
  Cl  Cl3       1.0  0.739655133632103  0.26034480851225844  0.2603449263684885  1.0000
  Cl  Cl4       1.0  0.260344706237415  0.7396552410669848  0.7396551511758797  1.0000
  Cl  Cl5       1.0  0.26034484623459586  0.7396551875749526  0.26034484033054833  1.0000
  Cl  Cl6       1.0  0.7396552235514794  0.26034473945480185  0.7396551077263059  1.0000
