data_image0
_chemical_formula_structural       Y2NbI6
_chemical_formula_sum              "Y2 Nb1 I6"
_cell_length_a       7.954394754562723
_cell_length_b       7.954394847222114
_cell_length_c       7.954394892296647
_cell_angle_alpha    59.999999555483704
_cell_angle_beta     59.99999981644513
_cell_angle_gamma    59.99999925629126

_space_group_name_H-M_alt    "P 1"
_space_group_IT_number       1

loop_
  _space_group_symop_operation_xyz
  'x, y, z'

loop_
  _atom_site_type_symbol
  _atom_site_label
  _atom_site_symmetry_multiplicity
  _atom_site_fract_x
  _atom_site_fract_y
  _atom_site_fract_z
  _atom_site_occupancy
  Y   Y1        1.0  0.24999996554012952  0.24999991589937046  0.2500000763573543  1.0000
  Y   Y2        1.0  0.7500000823838031  0.749999978654375  0.7499998560233923  1.0000
  Nb  Nb1       1.0  0.9999999956299385  2.6175043333394654e-08  0.9999999840688424  1.0000
  I   I1        1.0  0.2529094430258592  0.25290952225680674  0.7470905236083973  1.0000
  I   I2        1.0  0.747090513016287  0.7470905216486561  0.2529095132970484  1.0000
  I   I3        1.0  0.7470905508081052  0.25290944560505707  0.25290948072471414  1.0000
  I   I4        1.0  0.25290945931246733  0.7470905536488612  0.7470905351241245  1.0000
  I   I5        1.0  0.2529094265923733  0.7470905588952557  0.2529095038883577  1.0000
  I   I6        1.0  0.7470905586589085  0.2529094757719564  0.7470905393748121  1.0000
