data_image0
_chemical_formula_structural       Y2NbS6
_chemical_formula_sum              "Y2 Nb1 S6"
_cell_length_a       6.45371685669469
_cell_length_b       6.4537170059522495
_cell_length_c       6.4537170096793295
_cell_angle_alpha    59.99999988360262
_cell_angle_beta     60.00000053714487
_cell_angle_gamma    60.00000101883144

_space_group_name_H-M_alt    "P 1"
_space_group_IT_number       1

loop_
  _space_group_symop_operation_xyz
  'x, y, z'

loop_
  _atom_site_type_symbol
  _atom_site_label
  _atom_site_symmetry_multiplicity
  _atom_site_fract_x
  _atom_site_fract_y
  _atom_site_fract_z
  _atom_site_occupancy
  Y   Y1        1.0  0.2499999814723986  0.2499999983631793  0.2500000069964226  1.0000
  Y   Y2        1.0  0.7499999550252543  0.7500000330442509  0.7499999192331496  1.0000
  Nb  Nb1       1.0  1.6536953800200538e-08  0.9999999772271727  0.9999999876229904  1.0000
  S   S1        1.0  0.25928811409429803  0.25928812459791917  0.7407118893000757  1.0000
  S   S2        1.0  0.740711870314929  0.7407118650593268  0.2592881609073636  1.0000
  S   S3        1.0  0.7407118819165408  0.2592881046963979  0.25928820280675224  1.0000
  S   S4        1.0  0.2592881659644132  0.7407118716766992  0.7407118238563937  1.0000
  S   S5        1.0  0.2592881333104963  0.7407118859977695  0.2592881565058353  1.0000
  S   S6        1.0  0.7407118789662351  0.2592881435119249  0.7407118427971868  1.0000
