data_image0
_chemical_formula_structural       Y2NbF6
_chemical_formula_sum              "Y2 Nb1 F6"
_cell_length_a       5.89407758542214
_cell_length_b       5.894082556694098
_cell_length_c       5.894076548755286
_cell_angle_alpha    59.99997865428157
_cell_angle_beta     59.999947196429815
_cell_angle_gamma    59.99997711943988

_space_group_name_H-M_alt    "P 1"
_space_group_IT_number       1

loop_
  _space_group_symop_operation_xyz
  'x, y, z'

loop_
  _atom_site_type_symbol
  _atom_site_label
  _atom_site_symmetry_multiplicity
  _atom_site_fract_x
  _atom_site_fract_y
  _atom_site_fract_z
  _atom_site_occupancy
  Y   Y1        1.0  0.2500005459623499  0.24999489113877668  0.25000174016210375  1.0000
  Y   Y2        1.0  0.7500082680677003  0.7499833726299633  0.7500154517848779  1.0000
  Nb  Nb1       1.0  1.497599494373356e-06  0.999997317401418  0.9999994710350911  1.0000
  F   F1        1.0  0.2573515395349824  0.25736863279053446  0.7426413539189834  1.0000
  F   F2        1.0  0.7426390085828573  0.7426393328211397  0.2573543228424296  1.0000
  F   F3        1.0  0.7426426330340222  0.2573695139776621  0.2573494719391471  1.0000
  F   F4        1.0  0.2573558544647871  0.7426402407260847  0.7426367851604974  1.0000
  F   F5        1.0  0.257360932848771  0.7426419280966798  0.2573610824620554  1.0000
  F   F6        1.0  0.7426394539605464  0.25736476166417654  0.7426404705308568  1.0000
