data_image0
_chemical_formula_structural       Y2NbSe6
_chemical_formula_sum              "Y2 Nb1 Se6"
_cell_length_a       6.7947628641113935
_cell_length_b       6.79476294187994
_cell_length_c       6.794762892457613
_cell_angle_alpha    59.999998437015144
_cell_angle_beta     59.999998773528326
_cell_angle_gamma    59.99999943599673

_space_group_name_H-M_alt    "P 1"
_space_group_IT_number       1

loop_
  _space_group_symop_operation_xyz
  'x, y, z'

loop_
  _atom_site_type_symbol
  _atom_site_label
  _atom_site_symmetry_multiplicity
  _atom_site_fract_x
  _atom_site_fract_y
  _atom_site_fract_z
  _atom_site_occupancy
  Y   Y1        1.0  0.2500000112893912  0.24999998197778173  0.2500000014006799  1.0000
  Y   Y2        1.0  0.7499999706281354  0.750000054082362  0.7499999949930447  1.0000
  Nb  Nb1       1.0  0.9999999568288263  0.9999999765677127  4.21320614044195e-08  1.0000
  Se  Se1       1.0  0.25857815047231314  0.2585781447755705  0.7414218419475185  1.0000
  Se  Se2       1.0  0.7414219057209777  0.7414218876796063  0.25857811028047695  1.0000
  Se  Se3       1.0  0.7414218388949366  0.2585781463868748  0.25857813233404253  1.0000
  Se  Se4       1.0  0.2585781667464477  0.741421833796277  0.7414218668907545  1.0000
  Se  Se5       1.0  0.25857816371457815  0.7414218434850088  0.2585781452565979  1.0000
  Se  Se6       1.0  0.7414218340306448  0.25857813489565945  0.7414218647044087  1.0000
