data_image0
_chemical_formula_structural       Y2NbO6
_chemical_formula_sum              "Y2 Nb1 O6"
_cell_length_a       5.365078173847919
_cell_length_b       5.365077843080301
_cell_length_c       5.365078092856046
_cell_angle_alpha    60.000002431219464
_cell_angle_beta     60.000002492811376
_cell_angle_gamma    60.000003435681855

_space_group_name_H-M_alt    "P 1"
_space_group_IT_number       1

loop_
  _space_group_symop_operation_xyz
  'x, y, z'

loop_
  _atom_site_type_symbol
  _atom_site_label
  _atom_site_symmetry_multiplicity
  _atom_site_fract_x
  _atom_site_fract_y
  _atom_site_fract_z
  _atom_site_occupancy
  Y   Y1        1.0  0.24999988853450855  0.2500000224527215  0.25000008440032395  1.0000
  Y   Y2        1.0  0.7500000804475496  0.7499999075615411  0.750000084671346  1.0000
  Nb  Nb1       1.0  0.9999999836734692  0.9999999908687631  1.0864977569292885e-08  1.0000
  O   O1        1.0  0.25758115562960243  0.25758120699743164  0.7424188223098378  1.0000
  O   O2        1.0  0.7424188184588543  0.7424188691166056  0.2575811089989482  1.0000
  O   O3        1.0  0.7424188591750731  0.25758123397837435  0.2575810680198588  1.0000
  O   O4        1.0  0.2575811089788485  0.742418814741952  0.7424188296275935  1.0000
  O   O5        1.0  0.25758121660730865  0.7424187531936433  0.25758114626274814  1.0000
  O   O6        1.0  0.742418897053116  0.25758122704241593  0.7424187240570211  1.0000
