data_image0
_chemical_formula_structural       Y2NbBr6
_chemical_formula_sum              "Y2 Nb1 Br6"
_cell_length_a       7.212595903498674
_cell_length_b       7.212597061801868
_cell_length_c       7.212596881508522
_cell_angle_alpha    59.99999494217258
_cell_angle_beta     59.9999915750943
_cell_angle_gamma    59.999992171003214

_space_group_name_H-M_alt    "P 1"
_space_group_IT_number       1

loop_
  _space_group_symop_operation_xyz
  'x, y, z'

loop_
  _atom_site_type_symbol
  _atom_site_label
  _atom_site_symmetry_multiplicity
  _atom_site_fract_x
  _atom_site_fract_y
  _atom_site_fract_z
  _atom_site_occupancy
  Y   Y1        1.0  0.24999977306940888  0.24999943515461656  0.2500004077242344  1.0000
  Y   Y2        1.0  0.7500009815324084  0.7499990050659299  0.7500009281594628  1.0000
  Nb  Nb1       1.0  2.321653819933051e-07  2.7848243340233184e-07  0.9999997100144935  1.0000
  Br  Br1       1.0  0.25535052225408505  0.25535100097018465  0.7446491332593245  1.0000
  Br  Br2       1.0  0.7446490948923863  0.7446496076778758  0.2553503630658902  1.0000
  Br  Br3       1.0  0.7446490993484935  0.25535098409784085  0.2553505244727797  1.0000
  Br  Br4       1.0  0.25535054802752  0.7446492985219821  0.7446491655050813  1.0000
  Br  Br5       1.0  0.2553505456686578  0.7446495751931765  0.255350588691495  1.0000
  Br  Br6       1.0  0.7446492094703853  0.2553508211968958  0.7446492068079739  1.0000
