data_image0
_chemical_formula_structural       Y2NCl6
_chemical_formula_sum              "Y2 N1 Cl6"
_cell_length_a       6.564154725907485
_cell_length_b       6.564154471456775
_cell_length_c       6.5641545223277165
_cell_angle_alpha    59.99999830103415
_cell_angle_beta     59.999996963904174
_cell_angle_gamma    59.999998222868996

_space_group_name_H-M_alt    "P 1"
_space_group_IT_number       1

loop_
  _space_group_symop_operation_xyz
  'x, y, z'

loop_
  _atom_site_type_symbol
  _atom_site_label
  _atom_site_symmetry_multiplicity
  _atom_site_fract_x
  _atom_site_fract_y
  _atom_site_fract_z
  _atom_site_occupancy
  Y   Y1        1.0  0.2499999349119261  0.2500000347132947  0.2500000228908841  1.0000
  Y   Y2        1.0  0.7499999886791798  0.7499999903256243  0.7500000214206736  1.0000
  N   N1        1.0  0.9999999935855362  0.9999999981341925  0.9999999797653288  1.0000
  Cl  Cl1       1.0  0.25905107026411867  0.25905107597291105  0.7409489401248393  1.0000
  Cl  Cl2       1.0  0.7409489119108297  0.7409489210788949  0.25905109345862826  1.0000
  Cl  Cl3       1.0  0.7409489219306138  0.2590511165960492  0.25905106114670023  1.0000
  Cl  Cl4       1.0  0.2590510797712374  0.7409489326983683  0.7409488603807369  1.0000
  Cl  Cl5       1.0  0.25905113155043424  0.7409488734765152  0.2590511377093768  1.0000
  Cl  Cl6       1.0  0.7409489642739988  0.25905106760106456  0.7409488639896079  1.0000
