data_image0
_chemical_formula_structural       Y2NCl6
_chemical_formula_sum              "Y2 N1 Cl6"
_cell_length_a       6.564824203813869
_cell_length_b       6.564824006642345
_cell_length_c       6.564824075579737
_cell_angle_alpha    60.00000218916165
_cell_angle_beta     59.99999987137119
_cell_angle_gamma    60.00000093093418

_space_group_name_H-M_alt    "P 1"
_space_group_IT_number       1

loop_
  _space_group_symop_operation_xyz
  'x, y, z'

loop_
  _atom_site_type_symbol
  _atom_site_label
  _atom_site_symmetry_multiplicity
  _atom_site_fract_x
  _atom_site_fract_y
  _atom_site_fract_z
  _atom_site_occupancy
  Y   Y1        1.0  0.2500000429011453  0.25000012706842767  0.24999995219240703  1.0000
  Y   Y2        1.0  0.7500000513721256  0.7499999166666015  0.7500000056506034  1.0000
  N   N1        1.0  5.2919270035390925e-09  1.5298060997134244e-07  0.9999999635152963  1.0000
  Cl  Cl1       1.0  0.2590739205596102  0.25907385753094625  0.7409260876585856  1.0000
  Cl  Cl2       1.0  0.7409260827681003  0.7409260052392139  0.2590739330226733  1.0000
  Cl  Cl3       1.0  0.7409259609214879  0.2590739712340416  0.2590738669376508  1.0000
  Cl  Cl4       1.0  0.2590739243969186  0.740925992279446  0.740926166946409  1.0000
  Cl  Cl5       1.0  0.25907383737575373  0.7409260852189562  0.25907398431239287  1.0000
  Cl  Cl6       1.0  0.7409262007553624  0.25907388948823723  0.7409260376388815  1.0000
