data_image0
_chemical_formula_structural       Y2NF6
_chemical_formula_sum              "Y2 N1 F6"
_cell_length_a       5.145829746812196
_cell_length_b       5.145829302058316
_cell_length_c       5.145830087603149
_cell_angle_alpha    60.00000695343323
_cell_angle_beta     60.00000038257547
_cell_angle_gamma    60.000002451399055

_space_group_name_H-M_alt    "P 1"
_space_group_IT_number       1

loop_
  _space_group_symop_operation_xyz
  'x, y, z'

loop_
  _atom_site_type_symbol
  _atom_site_label
  _atom_site_symmetry_multiplicity
  _atom_site_fract_x
  _atom_site_fract_y
  _atom_site_fract_z
  _atom_site_occupancy
  Y   Y1        1.0  0.24999976483758893  0.2500001878820351  0.2500000679319926  1.0000
  Y   Y2        1.0  0.7500001244414684  0.7500002280558511  0.7499999099870341  1.0000
  N   N1        1.0  0.9999999870533891  2.475275552235409e-07  0.9999998341265235  1.0000
  F   F1        1.0  0.2624128928572187  0.2624127348775099  0.7375871397169957  1.0000
  F   F2        1.0  0.7375872711450773  0.737587159824435  0.2624128059926551  1.0000
  F   F3        1.0  0.7375872794011173  0.2624125496079794  0.26241284485979843  1.0000
  F   F4        1.0  0.26241271934594707  0.7375871070866937  0.7375872966511163  1.0000
  F   F5        1.0  0.26241269104416304  0.7375869732670552  0.2624128522468793  1.0000
  F   F6        1.0  0.7375872863523123  0.262412626305859  0.7375872196742241  1.0000
