data_image0
_chemical_formula_structural       Y2NF6
_chemical_formula_sum              "Y2 N1 F6"
_cell_length_a       5.145802333615344
_cell_length_b       5.145802484179956
_cell_length_c       5.145802397838664
_cell_angle_alpha    59.99999788918342
_cell_angle_beta     59.99999854757136
_cell_angle_gamma    59.99999717699593

_space_group_name_H-M_alt    "P 1"
_space_group_IT_number       1

loop_
  _space_group_symop_operation_xyz
  'x, y, z'

loop_
  _atom_site_type_symbol
  _atom_site_label
  _atom_site_symmetry_multiplicity
  _atom_site_fract_x
  _atom_site_fract_y
  _atom_site_fract_z
  _atom_site_occupancy
  Y   Y1        1.0  0.2500000302697677  0.24999993920526487  0.25000002790486453  1.0000
  Y   Y2        1.0  0.7499998935851656  0.7500000794251838  0.7500001427585459  1.0000
  N   N1        1.0  0.9999998919006168  2.165877683137762e-07  0.9999999340958148  1.0000
  F   F1        1.0  0.2624191031446371  0.26241908967317235  0.7375808752857415  1.0000
  F   F2        1.0  0.7375810564201498  0.7375807671114762  0.2624189436259371  1.0000
  F   F3        1.0  0.7375810422233468  0.26241901845324855  0.2624190638388905  1.0000
  F   F4        1.0  0.2624190411360045  0.7375809121140431  0.7375809156373684  1.0000
  F   F5        1.0  0.2624190938325593  0.7375809103267625  0.26241896771423767  1.0000
  F   F6        1.0  0.7375808684226913  0.26241889885618286  0.7375810144630253  1.0000
