data_image0
_chemical_formula_structural       Y2NiSe6
_chemical_formula_sum              "Y2 Ni1 Se6"
_cell_length_a       6.540560642724729
_cell_length_b       6.540560878545747
_cell_length_c       6.540560456399618
_cell_angle_alpha    60.000001833162024
_cell_angle_beta     60.000001072020304
_cell_angle_gamma    60.00000156848446

_space_group_name_H-M_alt    "P 1"
_space_group_IT_number       1

loop_
  _space_group_symop_operation_xyz
  'x, y, z'

loop_
  _atom_site_type_symbol
  _atom_site_label
  _atom_site_symmetry_multiplicity
  _atom_site_fract_x
  _atom_site_fract_y
  _atom_site_fract_z
  _atom_site_occupancy
  Y   Y1        1.0  0.2500000940172467  0.25000002390887693  0.2499999547470382  1.0000
  Y   Y2        1.0  0.7499999764521805  0.7500000192955696  0.7499998506123836  1.0000
  Ni  Ni1       1.0  1.2036844046242477e-08  1.685284151182112e-08  0.9999999794394734  1.0000
  Se  Se1       1.0  0.25526531469222047  0.2552652335017152  0.7447347322369087  1.0000
  Se  Se2       1.0  0.7447346689858342  0.7447347628892819  0.2552653830233571  1.0000
  Se  Se3       1.0  0.744734731612263  0.2552652581190587  0.25526528001308796  1.0000
  Se  Se4       1.0  0.2552652934206898  0.744734698948642  0.7447347180333841  1.0000
  Se  Se5       1.0  0.25526522569848975  0.7447346671579187  0.25526531309386735  1.0000
  Se  Se6       1.0  0.7447346912139012  0.2552653123802373  0.7447347782320496  1.0000
