data_image0
_chemical_formula_structural       Y2NiS6
_chemical_formula_sum              "Y2 Ni1 S6"
_cell_length_a       6.146943576538634
_cell_length_b       6.146943738482024
_cell_length_c       6.146943611976609
_cell_angle_alpha    59.99999928793368
_cell_angle_beta     59.9999995676871
_cell_angle_gamma    59.99999997858803

_space_group_name_H-M_alt    "P 1"
_space_group_IT_number       1

loop_
  _space_group_symop_operation_xyz
  'x, y, z'

loop_
  _atom_site_type_symbol
  _atom_site_label
  _atom_site_symmetry_multiplicity
  _atom_site_fract_x
  _atom_site_fract_y
  _atom_site_fract_z
  _atom_site_occupancy
  Y   Y1        1.0  0.25000007311747163  0.2499999365003819  0.25000002366527235  1.0000
  Y   Y2        1.0  0.7500000296763217  0.7500001023905964  0.7499999591966197  1.0000
  Ni  Ni1       1.0  0.9999999767939064  1.9924450015362127e-09  2.687507179650049e-08  1.0000
  S   S1        1.0  0.2534751235743091  0.2534751141848588  0.7465248858019499  1.0000
  S   S2        1.0  0.7465249039104186  0.7465248350460844  0.25347514863482346  1.0000
  S   S3        1.0  0.7465248656842701  0.25347511171250536  0.253475100319145  1.0000
  S   S4        1.0  0.25347510552044356  0.746524899284241  0.7465248760626917  1.0000
  S   S5        1.0  0.2534751061738513  0.746524872747662  0.2534750741182366  1.0000
  S   S6        1.0  0.7465248232677137  0.25347512828685875  0.7465248858288439  1.0000
