data_image0
_chemical_formula_structural       Y2NiO6
_chemical_formula_sum              "Y2 Ni1 O6"
_cell_length_a       5.145396320751664
_cell_length_b       5.145396627358034
_cell_length_c       5.145396165440203
_cell_angle_alpha    59.99999964153016
_cell_angle_beta     59.999999644562884
_cell_angle_gamma    59.9999990540302

_space_group_name_H-M_alt    "P 1"
_space_group_IT_number       1

loop_
  _space_group_symop_operation_xyz
  'x, y, z'

loop_
  _atom_site_type_symbol
  _atom_site_label
  _atom_site_symmetry_multiplicity
  _atom_site_fract_x
  _atom_site_fract_y
  _atom_site_fract_z
  _atom_site_occupancy
  Y   Y1        1.0  0.24999996706772326  0.24999998466896575  0.24999995062181946  1.0000
  Y   Y2        1.0  0.7499999382412049  0.7500000515980838  0.7499999827863093  1.0000
  Ni  Ni1       1.0  0.9999999840187385  1.4281639412891612e-08  0.9999999697540517  1.0000
  O   O1        1.0  0.25050925169228794  0.2505092087224308  0.7494907890234151  1.0000
  O   O2        1.0  0.7494907951804954  0.7494907394745091  0.2505092808905772  1.0000
  O   O3        1.0  0.7494908387655338  0.25050926440843285  0.2505092180503023  1.0000
  O   O4        1.0  0.25050920665653087  0.7494906814082347  0.7494908343443362  1.0000
  O   O5        1.0  0.2505093009325814  0.7494907690894147  0.2505091941422193  1.0000
  O   O6        1.0  0.7494906636302643  0.25050929812117867  0.7494908224371839  1.0000
