data_image0
_chemical_formula_structural       Y2NiF6
_chemical_formula_sum              "Y2 Ni1 F6"
_cell_length_a       5.377972936588605
_cell_length_b       5.377973307651099
_cell_length_c       5.377973092640265
_cell_angle_alpha    59.999997395902824
_cell_angle_beta     59.999998437865486
_cell_angle_gamma    59.999999885773086

_space_group_name_H-M_alt    "P 1"
_space_group_IT_number       1

loop_
  _space_group_symop_operation_xyz
  'x, y, z'

loop_
  _atom_site_type_symbol
  _atom_site_label
  _atom_site_symmetry_multiplicity
  _atom_site_fract_x
  _atom_site_fract_y
  _atom_site_fract_z
  _atom_site_occupancy
  Y   Y1        1.0  0.2500000357013758  0.25000023595187726  0.2499996071363471  1.0000
  Y   Y2        1.0  0.7499999913028669  0.7500000246549684  0.7500003198370544  1.0000
  Ni  Ni1       1.0  3.788855411701116e-08  2.277334185140316e-09  1.1527477801711886e-08  1.0000
  F   F1        1.0  0.25427468934452446  0.25427479842283157  0.7457254607575147  1.0000
  F   F2        1.0  0.7457253365583953  0.7457251820717677  0.2542744543488789  1.0000
  F   F3        1.0  0.7457253561784692  0.254274881109271  0.25427467434763174  1.0000
  F   F4        1.0  0.2542746440263767  0.7457249832412183  0.7457254344026727  1.0000
  F   F5        1.0  0.2542749539521298  0.7457252089589712  0.25427455415279304  1.0000
  F   F6        1.0  0.7457249829674346  0.2542746713328684  0.7457255113297595  1.0000
