data_image0
_chemical_formula_structural       Y2NiI6
_chemical_formula_sum              "Y2 Ni1 I6"
_cell_length_a       7.599517815001727
_cell_length_b       7.599517739501544
_cell_length_c       7.599517776870361
_cell_angle_alpha    59.999999795647284
_cell_angle_beta     59.999999947452295
_cell_angle_gamma    59.99999997135341

_space_group_name_H-M_alt    "P 1"
_space_group_IT_number       1

loop_
  _space_group_symop_operation_xyz
  'x, y, z'

loop_
  _atom_site_type_symbol
  _atom_site_label
  _atom_site_symmetry_multiplicity
  _atom_site_fract_x
  _atom_site_fract_y
  _atom_site_fract_z
  _atom_site_occupancy
  Y   Y1        1.0  0.24999995134279346  0.2500000365276699  0.2499999847250595  1.0000
  Y   Y2        1.0  0.7500000066807432  0.7499999661498374  0.7500000114116123  1.0000
  Ni  Ni1       1.0  0.9999999937379043  9.669652055161808e-09  0.999999994348603  1.0000
  I   I1        1.0  0.24784721224170855  0.24784724660158508  0.7521527731345018  1.0000
  I   I2        1.0  0.7521527810976076  0.7521527367366183  0.24784724264726457  1.0000
  I   I3        1.0  0.7521527922400071  0.24784723502951814  0.24784721257528025  1.0000
  I   I4        1.0  0.24784724659031626  0.7521527531435114  0.7521527530419827  1.0000
  I   I5        1.0  0.24784724631709937  0.7521527755279396  0.24784723964721525  1.0000
  I   I6        1.0  0.7521527676491796  0.2478472416540462  0.7521527844277484  1.0000
