data_image0
_chemical_formula_structural       Y2NiCl6
_chemical_formula_sum              "Y2 Ni1 Cl6"
_cell_length_a       6.661430605125124
_cell_length_b       6.661430816691261
_cell_length_c       6.661430718024344
_cell_angle_alpha    59.999998982487526
_cell_angle_beta     60.000000323914946
_cell_angle_gamma    60.00000016420843

_space_group_name_H-M_alt    "P 1"
_space_group_IT_number       1

loop_
  _space_group_symop_operation_xyz
  'x, y, z'

loop_
  _atom_site_type_symbol
  _atom_site_label
  _atom_site_symmetry_multiplicity
  _atom_site_fract_x
  _atom_site_fract_y
  _atom_site_fract_z
  _atom_site_occupancy
  Y   Y1        1.0  0.24999982584174185  0.2500002490810512  0.24999988194747094  1.0000
  Y   Y2        1.0  0.7499999891586348  0.7499999143748872  0.7500000331378858  1.0000
  Ni  Ni1       1.0  1.2833848463901764e-08  2.3901296114861392e-08  1.1656007812778924e-08  1.0000
  Cl  Cl1       1.0  0.24722139001320678  0.24722130679713886  0.7527786567322752  1.0000
  Cl  Cl2       1.0  0.7527786491442295  0.7527786158072695  0.24722136277577791  1.0000
  Cl  Cl3       1.0  0.752778689870557  0.24722133639998856  0.24722132796377158  1.0000
  Cl  Cl4       1.0  0.24722140999238937  0.7527785236933352  0.7527787284753663  1.0000
  Cl  Cl5       1.0  0.2472213410731082  0.7527787013317947  0.24722130625369343  1.0000
  Cl  Cl6       1.0  0.7527786886451434  0.24722132239348363  0.752778695935917  1.0000
