data_image0
_chemical_formula_structural       Y2NiTe6
_chemical_formula_sum              "Y2 Ni1 Te6"
_cell_length_a       7.0612416053226434
_cell_length_b       7.061241639230368
_cell_length_c       7.061241660415083
_cell_angle_alpha    59.999999783005954
_cell_angle_beta     60.00000025245557
_cell_angle_gamma    60.000001086834764

_space_group_name_H-M_alt    "P 1"
_space_group_IT_number       1

loop_
  _space_group_symop_operation_xyz
  'x, y, z'

loop_
  _atom_site_type_symbol
  _atom_site_label
  _atom_site_symmetry_multiplicity
  _atom_site_fract_x
  _atom_site_fract_y
  _atom_site_fract_z
  _atom_site_occupancy
  Y   Y1        1.0  0.24999998378896884  0.2500000418946409  0.25000004735056763  1.0000
  Y   Y2        1.0  0.7499999616263375  0.7500000164128763  0.7500000825115333  1.0000
  Ni  Ni1       1.0  0.9999999745952768  1.7344610184074737e-08  5.0764046833116333e-08  1.0000
  Te  Te1       1.0  0.2545964038081094  0.25459638642216825  0.7454035715935061  1.0000
  Te  Te2       1.0  0.7454036443002209  0.7454035747555312  0.2545963430597632  1.0000
  Te  Te3       1.0  0.745403624305417  0.254596400135737  0.2545963611877562  1.0000
  Te  Te4       1.0  0.2545963764623884  0.7454035853244168  0.7454035919019971  1.0000
  Te  Te5       1.0  0.2545964116918253  0.7454035799886052  0.25459637806995716  1.0000
  Te  Te6       1.0  0.7454036236149478  0.25459639506478254  0.7454035756993292  1.0000
