data_image0
_chemical_formula_structural       Y2NiBr6
_chemical_formula_sum              "Y2 Ni1 Br6"
_cell_length_a       7.007874951996388
_cell_length_b       7.00787475751558
_cell_length_c       7.007874667021296
_cell_angle_alpha    60.00000003935272
_cell_angle_beta     60.0000002981472
_cell_angle_gamma    59.99999940770161

_space_group_name_H-M_alt    "P 1"
_space_group_IT_number       1

loop_
  _space_group_symop_operation_xyz
  'x, y, z'

loop_
  _atom_site_type_symbol
  _atom_site_label
  _atom_site_symmetry_multiplicity
  _atom_site_fract_x
  _atom_site_fract_y
  _atom_site_fract_z
  _atom_site_occupancy
  Y   Y1        1.0  0.25000001259275695  0.24999992950631159  0.25000010707560477  1.0000
  Y   Y2        1.0  0.7500001228084827  0.7499999091081281  0.7500000086530854  1.0000
  Ni  Ni1       1.0  1.1916684627975558e-08  8.738347340727664e-09  0.9999999511443975  1.0000
  Br  Br1       1.0  0.24741100916298903  0.24741105757133441  0.7525889586671247  1.0000
  Br  Br2       1.0  0.7525889734457919  0.7525890169784841  0.24741099562494834  1.0000
  Br  Br3       1.0  0.7525889580197198  0.24741104254050666  0.24741102118598526  1.0000
  Br  Br4       1.0  0.2474109198004336  0.7525890547290153  0.7525889827023478  1.0000
  Br  Br5       1.0  0.24741101351916836  0.7525889378573639  0.24741100120479753  1.0000
  Br  Br6       1.0  0.7525889801924847  0.24741104406597267  0.7525889681636897  1.0000
