data_image0
_chemical_formula_structural       Y2NO6
_chemical_formula_sum              "Y2 N1 O6"
_cell_length_a       5.0458640721393175
_cell_length_b       5.04586413647513
_cell_length_c       5.045863853184951
_cell_angle_alpha    59.999999573738684
_cell_angle_beta     60.00000213048422
_cell_angle_gamma    59.99999857516136

_space_group_name_H-M_alt    "P 1"
_space_group_IT_number       1

loop_
  _space_group_symop_operation_xyz
  'x, y, z'

loop_
  _atom_site_type_symbol
  _atom_site_label
  _atom_site_symmetry_multiplicity
  _atom_site_fract_x
  _atom_site_fract_y
  _atom_site_fract_z
  _atom_site_occupancy
  Y   Y1        1.0  0.24999998679086413  0.24999990526858296  0.25000001795355  1.0000
  Y   Y2        1.0  0.7499999648303225  0.7499999221198951  0.7499999682929204  1.0000
  N   N1        1.0  1.1373028960970492e-06  2.162657653604535e-06  0.9999992715665558  1.0000
  O   O1        1.0  0.23077915457824774  0.23077915334571858  0.7692208921820021  1.0000
  O   O2        1.0  0.7692187899973071  0.7692189992573651  0.23078122630771747  1.0000
  O   O3        1.0  0.769220488403599  0.2307796744517093  0.23077955464305344  1.0000
  O   O4        1.0  0.23078057793518678  0.7692196990456438  0.7692193837709159  1.0000
  O   O5        1.0  0.2307800050940872  0.7692202872229672  0.23077984442872534  1.0000
  O   O6        1.0  0.7692199533800518  0.23078026105141194  0.7692197680391998  1.0000
