data_image0
_chemical_formula_structural       Y2OsO6
_chemical_formula_sum              "Y2 Os1 O6"
_cell_length_a       5.398717449941374
_cell_length_b       5.398717569548339
_cell_length_c       5.398717493997596
_cell_angle_alpha    59.999999112574976
_cell_angle_beta     59.99999898238258
_cell_angle_gamma    59.99999939815531

_space_group_name_H-M_alt    "P 1"
_space_group_IT_number       1

loop_
  _space_group_symop_operation_xyz
  'x, y, z'

loop_
  _atom_site_type_symbol
  _atom_site_label
  _atom_site_symmetry_multiplicity
  _atom_site_fract_x
  _atom_site_fract_y
  _atom_site_fract_z
  _atom_site_occupancy
  Y   Y1        1.0  0.2500000395345956  0.24999993124396114  0.24999998156601863  1.0000
  Y   Y2        1.0  0.7499999998404767  0.7500000024416875  0.7499999867825206  1.0000
  Os  Os1       1.0  0.9999999647851027  0.9999999773141521  4.8705800198139224e-09  1.0000
  O   O1        1.0  0.2488520561355342  0.2488520301553528  0.7511479855095935  1.0000
  O   O2        1.0  0.7511479404181707  0.7511479806621794  0.24885205274140046  1.0000
  O   O3        1.0  0.7511479413426947  0.24885209478949327  0.2488519764807856  1.0000
  O   O4        1.0  0.24885200912763822  0.75114797727983  0.7511480282539138  1.0000
  O   O5        1.0  0.24885201762770875  0.7511479631325443  0.24885201854954903  1.0000
  O   O6        1.0  0.7511480417086193  0.24885204541640304  0.7511479653646325  1.0000
