data_image0
_chemical_formula_structural       Y2OsS6
_chemical_formula_sum              "Y2 Os1 S6"
_cell_length_a       6.348940529028692
_cell_length_b       6.348940955845546
_cell_length_c       6.348940463310982
_cell_angle_alpha    60.00000150991209
_cell_angle_beta     60.000001980247944
_cell_angle_gamma    60.0000021713425

_space_group_name_H-M_alt    "P 1"
_space_group_IT_number       1

loop_
  _space_group_symop_operation_xyz
  'x, y, z'

loop_
  _atom_site_type_symbol
  _atom_site_label
  _atom_site_symmetry_multiplicity
  _atom_site_fract_x
  _atom_site_fract_y
  _atom_site_fract_z
  _atom_site_occupancy
  Y   Y1        1.0  0.25000005052931085  0.2499999666445975  0.24999994657407618  1.0000
  Y   Y2        1.0  0.7500000639390235  0.7499999500891857  0.7500001073294067  1.0000
  Os  Os1       1.0  0.9999999956091981  7.716215677101153e-09  0.9999999636858419  1.0000
  S   S1        1.0  0.2545878821984397  0.25458788399421545  0.745412106475565  1.0000
  S   S2        1.0  0.7454120448461178  0.7454121967091403  0.2545878173990801  1.0000
  S   S3        1.0  0.7454121169164915  0.25458790760008126  0.25458791361077127  1.0000
  S   S4        1.0  0.2545878723336978  0.7454120901539614  0.745412094663816  1.0000
  S   S5        1.0  0.25458793028173365  0.7454120720624341  0.2545879131281484  1.0000
  S   S6        1.0  0.7454120287844695  0.2545879507693073  0.745412099274648  1.0000
