data_image0
_chemical_formula_structural       Y2OsBr6
_chemical_formula_sum              "Y2 Os1 Br6"
_cell_length_a       7.1930567457710035
_cell_length_b       7.193057173607525
_cell_length_c       7.1930573105974975
_cell_angle_alpha    59.99999916380652
_cell_angle_beta     60.00000111383042
_cell_angle_gamma    60.00000204387671

_space_group_name_H-M_alt    "P 1"
_space_group_IT_number       1

loop_
  _space_group_symop_operation_xyz
  'x, y, z'

loop_
  _atom_site_type_symbol
  _atom_site_label
  _atom_site_symmetry_multiplicity
  _atom_site_fract_x
  _atom_site_fract_y
  _atom_site_fract_z
  _atom_site_occupancy
  Y   Y1        1.0  0.2499996479414379  0.2500004008423712  0.2499999425676099  1.0000
  Y   Y2        1.0  0.7499999758151735  0.7499996139300451  0.7500002325168439  1.0000
  Os  Os1       1.0  1.6862558751838003e-08  6.980973300518764e-08  0.9999999358104129  1.0000
  Br  Br1       1.0  0.24499690851048267  0.24499696901422835  0.7550030454009707  1.0000
  Br  Br2       1.0  0.7550031794863133  0.7550030014886085  0.24499689328383417  1.0000
  Br  Br3       1.0  0.7550031725520032  0.24499696363279494  0.24499681267555776  1.0000
  Br  Br4       1.0  0.24499695792817058  0.7550030238968058  0.7550031490828961  1.0000
  Br  Br5       1.0  0.24499697923826297  0.7550030135120248  0.24499687068325063  1.0000
  Br  Br6       1.0  0.755003164198386  0.244996939964048  0.7550031210869423  1.0000
