data_image0
_chemical_formula_structural       Y2OsF6
_chemical_formula_sum              "Y2 Os1 F6"
_cell_length_a       5.384478659241209
_cell_length_b       5.3844785523857706
_cell_length_c       5.384478841582787
_cell_angle_alpha    59.999998301922005
_cell_angle_beta     59.9999979890155
_cell_angle_gamma    59.99999776886018

_space_group_name_H-M_alt    "P 1"
_space_group_IT_number       1

loop_
  _space_group_symop_operation_xyz
  'x, y, z'

loop_
  _atom_site_type_symbol
  _atom_site_label
  _atom_site_symmetry_multiplicity
  _atom_site_fract_x
  _atom_site_fract_y
  _atom_site_fract_z
  _atom_site_occupancy
  Y   Y1        1.0  0.24999994919955643  0.24999999828559819  0.2499999372880659  1.0000
  Y   Y2        1.0  0.7500001242612752  0.7499999561888644  0.7499998915861825  1.0000
  Os  Os1       1.0  1.6765729622421616e-08  2.047125624476256e-08  0.9999999850958868  1.0000
  F   F1        1.0  0.28285546827391295  0.28285553866460195  0.7171445297872846  1.0000
  F   F2        1.0  0.7171445146830879  0.7171445136169764  0.28285557958538454  1.0000
  F   F3        1.0  0.7171445383796513  0.2828554204726639  0.282855566844453  1.0000
  F   F4        1.0  0.28285542129267965  0.7171445408255525  0.7171445049455447  1.0000
  F   F5        1.0  0.28285544686182496  0.7171445594479727  0.28285554815453084  1.0000
  F   F6        1.0  0.7171445277996751  0.2828554405181721  0.7171444875209683  1.0000
