data_image0
_chemical_formula_structural       Y2OsI6
_chemical_formula_sum              "Y2 Os1 I6"
_cell_length_a       7.752309000728481
_cell_length_b       7.752309023992702
_cell_length_c       7.752309082410341
_cell_angle_alpha    59.99999997848765
_cell_angle_beta     59.99999986754745
_cell_angle_gamma    60.00000009014202

_space_group_name_H-M_alt    "P 1"
_space_group_IT_number       1

loop_
  _space_group_symop_operation_xyz
  'x, y, z'

loop_
  _atom_site_type_symbol
  _atom_site_label
  _atom_site_symmetry_multiplicity
  _atom_site_fract_x
  _atom_site_fract_y
  _atom_site_fract_z
  _atom_site_occupancy
  Y   Y1        1.0  0.25000001276498035  0.2500000051971103  0.24999995171401032  1.0000
  Y   Y2        1.0  0.749999995401724  0.7499999476579846  0.7499999840817926  1.0000
  Os  Os1       1.0  1.4894924118578264e-08  6.248297778508239e-17  2.0931179401943575e-08  1.0000
  I   I1        1.0  0.24667356481947564  0.24667359447554918  0.7533264324784554  1.0000
  I   I2        1.0  0.7533263957273185  0.7533264342121185  0.24667360014570547  1.0000
  I   I3        1.0  0.7533264281080612  0.2466735897100147  0.2466735732837461  1.0000
  I   I4        1.0  0.24667360623703663  0.753326396321831  0.753326426999977  1.0000
  I   I5        1.0  0.2466735679984444  0.7533264317638285  0.2466735926758376  1.0000
  I   I6        1.0  0.7533264108585209  0.24667360008352984  0.7533264253435777  1.0000
