data_image0
_chemical_formula_structural       Y2OsCl6
_chemical_formula_sum              "Y2 Os1 Cl6"
_cell_length_a       6.902998900015552
_cell_length_b       6.902998887676087
_cell_length_c       6.90299865159471
_cell_angle_alpha    60.000002593464075
_cell_angle_beta     60.00000176618178
_cell_angle_gamma    59.99999886795899

_space_group_name_H-M_alt    "P 1"
_space_group_IT_number       1

loop_
  _space_group_symop_operation_xyz
  'x, y, z'

loop_
  _atom_site_type_symbol
  _atom_site_label
  _atom_site_symmetry_multiplicity
  _atom_site_fract_x
  _atom_site_fract_y
  _atom_site_fract_z
  _atom_site_occupancy
  Y   Y1        1.0  0.24999988560438938  0.24999979355784452  0.2500002807696608  1.0000
  Y   Y2        1.0  0.750000203193717  0.750000436335261  0.749999868899008  1.0000
  Os  Os1       1.0  0.999999990166427  0.9999999893546713  0.9999999798178889  1.0000
  Cl  Cl1       1.0  0.24552483252012036  0.2455246821994516  0.754475257779741  1.0000
  Cl  Cl2       1.0  0.7544752153435749  0.7544752088173577  0.24552468196803717  1.0000
  Cl  Cl3       1.0  0.7544753106415563  0.24552456718633947  0.2455247904296509  1.0000
  Cl  Cl4       1.0  0.24552459767343487  0.7544753610891237  0.7544751830794025  1.0000
  Cl  Cl5       1.0  0.24552462568454678  0.7544753785995024  0.24552478421096816  1.0000
  Cl  Cl6       1.0  0.754475339588072  0.24552457451505955  0.7544751875131591  1.0000
