data_image0
_chemical_formula_structural       Y2PBr6
_chemical_formula_sum              "Y2 P1 Br6"
_cell_length_a       7.345942939572889
_cell_length_b       7.345942077484113
_cell_length_c       7.345943118379274
_cell_angle_alpha    59.99999598833541
_cell_angle_beta     59.999999022588256
_cell_angle_gamma    59.9999986767192

_space_group_name_H-M_alt    "P 1"
_space_group_IT_number       1

loop_
  _space_group_symop_operation_xyz
  'x, y, z'

loop_
  _atom_site_type_symbol
  _atom_site_label
  _atom_site_symmetry_multiplicity
  _atom_site_fract_x
  _atom_site_fract_y
  _atom_site_fract_z
  _atom_site_occupancy
  Y   Y1        1.0  0.24999987396445233  0.2500000212325791  0.2500001011082534  1.0000
  Y   Y2        1.0  0.7499999556923391  0.7499998969737355  0.7500000931867785  1.0000
  P   P1        1.0  0.9999999325041333  0.9999999949982772  0.9999999926873359  1.0000
  Br  Br1       1.0  0.2604425327077111  0.26044254408865675  0.7395574600906903  1.0000
  Br  Br2       1.0  0.7395575169480703  0.7395574874899923  0.2604425552670195  1.0000
  Br  Br3       1.0  0.7395575240698113  0.26044252555493386  0.26044239254330753  1.0000
  Br  Br4       1.0  0.2604425589770397  0.739557486016834  0.7395574963282958  1.0000
  Br  Br5       1.0  0.2604425730760029  0.7395574603613623  0.2604425398365296  1.0000
  Br  Br6       1.0  0.739557506159612  0.26044258622244865  0.7395574123898147  1.0000
