data_image0
_chemical_formula_structural       Y2PbSe6
_chemical_formula_sum              "Y2 Pb1 Se6"
_cell_length_a       6.963226818375466
_cell_length_b       6.963226768288076
_cell_length_c       6.963226682099385
_cell_angle_alpha    60.00000071699828
_cell_angle_beta     60.00000034137356
_cell_angle_gamma    60.00000052106476

_space_group_name_H-M_alt    "P 1"
_space_group_IT_number       1

loop_
  _space_group_symop_operation_xyz
  'x, y, z'

loop_
  _atom_site_type_symbol
  _atom_site_label
  _atom_site_symmetry_multiplicity
  _atom_site_fract_x
  _atom_site_fract_y
  _atom_site_fract_z
  _atom_site_occupancy
  Y   Y1        1.0  0.2500000493427974  0.2499999654934507  0.24999999817846902  1.0000
  Y   Y2        1.0  0.7500000263183574  0.7500000178427576  0.7499999659869057  1.0000
  Pb  Pb1       1.0  3.5177510008528713e-09  0.9999999894467472  0.9999999762315502  1.0000
  Se  Se1       1.0  0.2708676682308704  0.2708677217635959  0.7291322774181886  1.0000
  Se  Se2       1.0  0.7291323188371077  0.7291322985089965  0.2708676651837606  1.0000
  Se  Se3       1.0  0.7291322806145588  0.27086767261828465  0.2708677299370141  1.0000
  Se  Se4       1.0  0.2708676898705823  0.7291323476543082  0.7291323099955345  1.0000
  Se  Se5       1.0  0.2708676895817056  0.7291322980370295  0.27086770912460745  1.0000
  Se  Se6       1.0  0.7291322732155674  0.27086769057580523  0.7291323634067964  1.0000
