data_image0
_chemical_formula_structural       Y2PbS6
_chemical_formula_sum              "Y2 Pb1 S6"
_cell_length_a       6.5921424065880565
_cell_length_b       6.592142299196768
_cell_length_c       6.592142360970427
_cell_angle_alpha    59.99999959676555
_cell_angle_beta     60.00000000247331
_cell_angle_gamma    60.00000104986831

_space_group_name_H-M_alt    "P 1"
_space_group_IT_number       1

loop_
  _space_group_symop_operation_xyz
  'x, y, z'

loop_
  _atom_site_type_symbol
  _atom_site_label
  _atom_site_symmetry_multiplicity
  _atom_site_fract_x
  _atom_site_fract_y
  _atom_site_fract_z
  _atom_site_occupancy
  Y   Y1        1.0  0.24999996771525104  0.24999987027223913  0.25000004240469925  1.0000
  Y   Y2        1.0  0.750000101641609  0.749999887641731  0.7500000351815854  1.0000
  Pb  Pb1       1.0  0.9999999935247446  0.9999999721317102  0.9999999944174096  1.0000
  S   S1        1.0  0.26770138839857377  0.2677013640140325  0.7322986184488344  1.0000
  S   S2        1.0  0.7322985979362567  0.7322987060247803  0.2677013036281902  1.0000
  S   S3        1.0  0.7322986011780507  0.26770141294258576  0.26770136578292925  1.0000
  S   S4        1.0  0.2677013494866213  0.7322986905381739  0.7322986317391202  1.0000
  S   S5        1.0  0.2677013760644393  0.7322986980633164  0.2677013271452723  1.0000
  S   S6        1.0  0.7322986220005415  0.26770139984378616  0.732298679802602  1.0000
