data_image0
_chemical_formula_structural       Y2PbTe6
_chemical_formula_sum              "Y2 Pb1 Te6"
_cell_length_a       7.475224523651868
_cell_length_b       7.475224521619321
_cell_length_c       7.475224505595449
_cell_angle_alpha    59.999999335628445
_cell_angle_beta     59.999999965106014
_cell_angle_gamma    60.00000024568353

_space_group_name_H-M_alt    "P 1"
_space_group_IT_number       1

loop_
  _space_group_symop_operation_xyz
  'x, y, z'

loop_
  _atom_site_type_symbol
  _atom_site_label
  _atom_site_symmetry_multiplicity
  _atom_site_fract_x
  _atom_site_fract_y
  _atom_site_fract_z
  _atom_site_occupancy
  Y   Y1        1.0  0.2500000452353382  0.2500000177363724  0.2500000013153236  1.0000
  Y   Y2        1.0  0.7499999920031184  0.7499999745656543  0.7500000067612014  1.0000
  Pb  Pb1       1.0  0.9999999947099759  3.440651460007724e-08  2.6912080939931387e-08  1.0000
  Te  Te1       1.0  0.27565867709301267  0.27565867085196527  0.7243413101304915  1.0000
  Te  Te2       1.0  0.7243413540764083  0.7243412886819524  0.2756586625167549  1.0000
  Te  Te3       1.0  0.7243412424120013  0.2756587280452955  0.2756586909103231  1.0000
  Te  Te4       1.0  0.2756587213044483  0.7243412855560024  0.724341295118481  1.0000
  Te  Te5       1.0  0.2756586922909173  0.7243412907396886  0.27565868920842446  1.0000
  Te  Te6       1.0  0.7243412787903186  0.2756587146695818  0.7243413159625347  1.0000
