data_image0
_chemical_formula_structural       Y2PbBr6
_chemical_formula_sum              "Y2 Pb1 Br6"
_cell_length_a       7.466936908008271
_cell_length_b       7.466936861193785
_cell_length_c       7.466937199102239
_cell_angle_alpha    59.999999888393965
_cell_angle_beta     60.00000061211609
_cell_angle_gamma    59.99999816441856

_space_group_name_H-M_alt    "P 1"
_space_group_IT_number       1

loop_
  _space_group_symop_operation_xyz
  'x, y, z'

loop_
  _atom_site_type_symbol
  _atom_site_label
  _atom_site_symmetry_multiplicity
  _atom_site_fract_x
  _atom_site_fract_y
  _atom_site_fract_z
  _atom_site_occupancy
  Y   Y1        1.0  0.2499999231819578  0.2499999812182915  0.2500001022830769  1.0000
  Y   Y2        1.0  0.7499999894774905  0.7500001421219691  0.74999993560218  1.0000
  Pb  Pb1       1.0  2.8226843232490716e-08  0.9999999524335044  1.9044486454637004e-08  1.0000
  Br  Br1       1.0  0.2673612481385871  0.26736128511808926  0.7326387039743294  1.0000
  Br  Br2       1.0  0.7326388025139533  0.7326386840411145  0.26736126031144153  1.0000
  Br  Br3       1.0  0.7326388001584498  0.26736115894198315  0.2673612686754746  1.0000
  Br  Br4       1.0  0.2673612318593643  0.7326387872540853  0.7326387110522778  1.0000
  Br  Br5       1.0  0.2673612418057769  0.7326388095339894  0.26736121136557267  1.0000
  Br  Br6       1.0  0.7326387462395965  0.2673611989905912  0.7326387846296509  1.0000
