data_image0
_chemical_formula_structural       Y2PbO6
_chemical_formula_sum              "Y2 Pb1 O6"
_cell_length_a       5.444982988726715
_cell_length_b       5.444982877200147
_cell_length_c       5.444982946183662
_cell_angle_alpha    60.00000012372861
_cell_angle_beta     60.000001006365025
_cell_angle_gamma    59.99999913100588

_space_group_name_H-M_alt    "P 1"
_space_group_IT_number       1

loop_
  _space_group_symop_operation_xyz
  'x, y, z'

loop_
  _atom_site_type_symbol
  _atom_site_label
  _atom_site_symmetry_multiplicity
  _atom_site_fract_x
  _atom_site_fract_y
  _atom_site_fract_z
  _atom_site_occupancy
  Y   Y1        1.0  0.2500000953812855  0.2500000355613274  0.24999999149612007  1.0000
  Y   Y2        1.0  0.7500000478571127  0.7500001471715447  0.7499998548381372  1.0000
  Pb  Pb1       1.0  0.9999999821562401  8.997236028694934e-09  1.3606027099531306e-08  1.0000
  O   O1        1.0  0.26481004746823605  0.26481004962467  0.7351900061610556  1.0000
  O   O2        1.0  0.7351899420787528  0.7351899261717793  0.26481005354507103  1.0000
  O   O3        1.0  0.7351899365332412  0.2648099075826857  0.26481011861637505  1.0000
  O   O4        1.0  0.2648100166426736  0.7351899737427872  0.735189951414185  1.0000
  O   O5        1.0  0.2648099365035108  0.7351900126651978  0.2648100194471116  1.0000
  O   O6        1.0  0.7351900067746857  0.2648099428874708  0.7351899578124592  1.0000
