data_image0
_chemical_formula_structural       Y2PbI6
_chemical_formula_sum              "Y2 Pb1 I6"
_cell_length_a       8.02824911670642
_cell_length_b       8.028249096463616
_cell_length_c       8.028249154312286
_cell_angle_alpha    59.99999972250655
_cell_angle_beta     59.999999969542685
_cell_angle_gamma    59.999999908053454

_space_group_name_H-M_alt    "P 1"
_space_group_IT_number       1

loop_
  _space_group_symop_operation_xyz
  'x, y, z'

loop_
  _atom_site_type_symbol
  _atom_site_label
  _atom_site_symmetry_multiplicity
  _atom_site_fract_x
  _atom_site_fract_y
  _atom_site_fract_z
  _atom_site_occupancy
  Y   Y1        1.0  0.25000002184121234  0.2499999053014234  0.2500000132777634  1.0000
  Y   Y2        1.0  0.7499999508610506  0.7500000469473589  0.7499999876951108  1.0000
  Pb  Pb1       1.0  0.9999999925467737  1.3729897684704105e-08  0.9999999993528674  1.0000
  I   I1        1.0  0.2670549231361214  0.2670548740936091  0.7329451097394897  1.0000
  I   I2        1.0  0.7329450878617033  0.7329451315492197  0.26705490019505096  1.0000
  I   I3        1.0  0.7329451368313974  0.2670548854795845  0.2670548829485964  1.0000
  I   I4        1.0  0.26705489531961274  0.7329451171121558  0.732945101742075  1.0000
  I   I5        1.0  0.26705487335277633  0.7329451251657253  0.26705490049671865  1.0000
  I   I6        1.0  0.7329451136875474  0.2670549048858104  0.7329451054754142  1.0000
