data_image0
_chemical_formula_structural       Y2PbCl6
_chemical_formula_sum              "Y2 Pb1 Cl6"
_cell_length_a       7.171659663680516
_cell_length_b       7.171659162045907
_cell_length_c       7.171659528534891
_cell_angle_alpha    59.999996908952944
_cell_angle_beta     59.999997342343214
_cell_angle_gamma    59.99999628886568

_space_group_name_H-M_alt    "P 1"
_space_group_IT_number       1

loop_
  _space_group_symop_operation_xyz
  'x, y, z'

loop_
  _atom_site_type_symbol
  _atom_site_label
  _atom_site_symmetry_multiplicity
  _atom_site_fract_x
  _atom_site_fract_y
  _atom_site_fract_z
  _atom_site_occupancy
  Y   Y1        1.0  0.24999951989139235  0.2500000420795101  0.25000023048985065  1.0000
  Y   Y2        1.0  0.7500001063969308  0.7500002970141912  0.7500005619796869  1.0000
  Pb  Pb1       1.0  0.9999999844683725  0.9999999982922437  0.9999998914919903  1.0000
  Cl  Cl1       1.0  0.2672562261889149  0.2672560032635672  0.732743850923384  1.0000
  Cl  Cl2       1.0  0.732743941097774  0.7327438286263843  0.2672558161188009  1.0000
  Cl  Cl3       1.0  0.7327439846041467  0.2672561428317274  0.26725603056735775  1.0000
  Cl  Cl4       1.0  0.26725591498079626  0.7327439366829515  0.7327438919237637  1.0000
  Cl  Cl5       1.0  0.2672562371316967  0.7327438375448753  0.26725601754776646  1.0000
  Cl  Cl6       1.0  0.7327440954751111  0.26725590895723805  0.7327437378109963  1.0000
