data_image0
_chemical_formula_structural       Y2PBr6
_chemical_formula_sum              "Y2 P1 Br6"
_cell_length_a       7.346213558340386
_cell_length_b       7.346210232775037
_cell_length_c       7.346213421924828
_cell_angle_alpha    59.999997435026216
_cell_angle_beta     60.00001130283508
_cell_angle_gamma    60.00000251445859

_space_group_name_H-M_alt    "P 1"
_space_group_IT_number       1

loop_
  _space_group_symop_operation_xyz
  'x, y, z'

loop_
  _atom_site_type_symbol
  _atom_site_label
  _atom_site_symmetry_multiplicity
  _atom_site_fract_x
  _atom_site_fract_y
  _atom_site_fract_z
  _atom_site_occupancy
  Y   Y1        1.0  0.2499995904002405  0.24999980190268345  0.2500012677617919  1.0000
  Y   Y2        1.0  0.7499990396534528  0.7500001375994935  0.7500001926673964  1.0000
  P   P1        1.0  3.796828830108053e-07  9.169493286795514e-08  1.0598375268180991e-07  1.0000
  Br  Br1       1.0  0.26042175370386755  0.26042093556490314  0.7395783182068038  1.0000
  Br  Br2       1.0  0.7395783839587774  0.739578937250183  0.26042156281565615  1.0000
  Br  Br3       1.0  0.7395792306070852  0.2604210943078461  0.26042115102533486  1.0000
  Br  Br4       1.0  0.26042129191428126  0.7395788735364931  0.7395784151846746  1.0000
  Br  Br5       1.0  0.2604212733884082  0.7395790572207125  0.26042091124683636  1.0000
  Br  Br6       1.0  0.7395790893263633  0.26042113069122136  0.7395780503870768  1.0000
