data_image0
_chemical_formula_structural       Y2PbF6
_chemical_formula_sum              "Y2 Pb1 F6"
_cell_length_a       5.760390086680817
_cell_length_b       5.760390255679562
_cell_length_c       5.760389849199989
_cell_angle_alpha    60.00000336526858
_cell_angle_beta     60.00000017379065
_cell_angle_gamma    60.000001701406745

_space_group_name_H-M_alt    "P 1"
_space_group_IT_number       1

loop_
  _space_group_symop_operation_xyz
  'x, y, z'

loop_
  _atom_site_type_symbol
  _atom_site_label
  _atom_site_symmetry_multiplicity
  _atom_site_fract_x
  _atom_site_fract_y
  _atom_site_fract_z
  _atom_site_occupancy
  Y   Y1        1.0  0.24999978458754185  0.2499999590934295  0.2500000906047576  1.0000
  Y   Y2        1.0  0.7499999698135774  0.7499995626102293  0.7500002843072181  1.0000
  Pb  Pb1       1.0  0.999999967704826  0.999999976612361  4.52013427369711e-08  1.0000
  F   F1        1.0  0.27106848984153487  0.2710689219410446  0.7289313407937758  1.0000
  F   F2        1.0  0.7289314098911456  0.7289311079122343  0.2710686865456887  1.0000
  F   F3        1.0  0.728931348084279  0.2710688858982863  0.2710685763926773  1.0000
  F   F4        1.0  0.27106878858855454  0.7289312630193381  0.728931302456428  1.0000
  F   F5        1.0  0.2710688148920127  0.7289313449073688  0.27106858992163846  1.0000
  F   F6        1.0  0.7289314420921306  0.2710689422099422  0.7289311284240837  1.0000
