data_image0
_chemical_formula_structural       Y2PCl6
_chemical_formula_sum              "Y2 P1 Cl6"
_cell_length_a       6.238348422633536
_cell_length_b       6.238348233436777
_cell_length_c       6.238348147274804
_cell_angle_alpha    59.999998776721846
_cell_angle_beta     59.99999822625463
_cell_angle_gamma    59.9999984666311

_space_group_name_H-M_alt    "P 1"
_space_group_IT_number       1

loop_
  _space_group_symop_operation_xyz
  'x, y, z'

loop_
  _atom_site_type_symbol
  _atom_site_label
  _atom_site_symmetry_multiplicity
  _atom_site_fract_x
  _atom_site_fract_y
  _atom_site_fract_z
  _atom_site_occupancy
  Y   Y1        1.0  0.24999997030870627  0.2500001512189604  0.24999998387024314  1.0000
  Y   Y2        1.0  0.7499999869188964  0.7499998980566  0.7500000070708154  1.0000
  P   P1        1.0  0.9999999667947957  0.9999999941102452  0.9999998945143816  1.0000
  Cl  Cl1       1.0  0.262962462256913  0.2629626066831712  0.7370373648306049  1.0000
  Cl  Cl2       1.0  0.7370374436503995  0.7370373189075204  0.26296275368774713  1.0000
  Cl  Cl3       1.0  0.737037525348565  0.2629626076323618  0.2629625438724169  1.0000
  Cl  Cl4       1.0  0.26296266996472906  0.7370373159950773  0.7370374693962862  1.0000
  Cl  Cl5       1.0  0.26296266191418793  0.7370374919976393  0.26296244600030094  1.0000
  Cl  Cl6       1.0  0.7370372855901709  0.26296261421222544  0.7370375309531575  1.0000
