data_image0
_chemical_formula_structural       Y2PCl6
_chemical_formula_sum              "Y2 P1 Cl6"
_cell_length_a       6.238378869634173
_cell_length_b       6.238378900456216
_cell_length_c       6.238378821748688
_cell_angle_alpha    59.99999816505135
_cell_angle_beta     59.99999728072889
_cell_angle_gamma    59.999996436643855

_space_group_name_H-M_alt    "P 1"
_space_group_IT_number       1

loop_
  _space_group_symop_operation_xyz
  'x, y, z'

loop_
  _atom_site_type_symbol
  _atom_site_label
  _atom_site_symmetry_multiplicity
  _atom_site_fract_x
  _atom_site_fract_y
  _atom_site_fract_z
  _atom_site_occupancy
  Y   Y1        1.0  0.24999991927137044  0.24999999653493968  0.24999994712580745  1.0000
  Y   Y2        1.0  0.7499998563609214  0.750000160406883  0.7500003494981862  1.0000
  P   P1        1.0  0.9999999602700782  0.9999999803675792  0.9999999831947362  1.0000
  Cl  Cl1       1.0  0.26295236428499674  0.2629521126654721  0.7370477700958012  1.0000
  Cl  Cl2       1.0  0.7370477673546209  0.7370477203413753  0.2629521514243682  1.0000
  Cl  Cl3       1.0  0.7370478284271261  0.26295219806673176  0.2629521326163897  1.0000
  Cl  Cl4       1.0  0.2629521693432566  0.7370477311389887  0.7370478446075153  1.0000
  Cl  Cl5       1.0  0.2629522743007845  0.7370478753444416  0.2629521008742873  1.0000
  Cl  Cl6       1.0  0.7370478583812617  0.2629522266265933  0.7370477337319868  1.0000
