data_image0
_chemical_formula_structural       Y2PdS6
_chemical_formula_sum              "Y2 Pd1 S6"
_cell_length_a       6.350217111779718
_cell_length_b       6.350217280931942
_cell_length_c       6.350217095702847
_cell_angle_alpha    59.9999996741178
_cell_angle_beta     59.99999948110905
_cell_angle_gamma    59.99999955338875

_space_group_name_H-M_alt    "P 1"
_space_group_IT_number       1

loop_
  _space_group_symop_operation_xyz
  'x, y, z'

loop_
  _atom_site_type_symbol
  _atom_site_label
  _atom_site_symmetry_multiplicity
  _atom_site_fract_x
  _atom_site_fract_y
  _atom_site_fract_z
  _atom_site_occupancy
  Y   Y1        1.0  0.24999996057587914  0.2500000553217592  0.24999996676565372  1.0000
  Y   Y2        1.0  0.7499999968203949  0.7499999788846649  0.7500000244768515  1.0000
  Pd  Pd1       1.0  0.9999999622177177  4.243065351523123e-08  5.90910373002008e-08  1.0000
  S   S1        1.0  0.25860910559772243  0.2586091207732895  0.7413908869401109  1.0000
  S   S2        1.0  0.74139091299896  0.7413908825744764  0.2586091048790124  1.0000
  S   S3        1.0  0.7413909489410804  0.25860906240534653  0.25860910169061674  1.0000
  S   S4        1.0  0.2586091572144473  0.7413908310084522  0.7413908524988394  1.0000
  S   S5        1.0  0.25860914550176684  0.7413908967620663  0.2586091041928765  1.0000
  S   S6        1.0  0.7413908090109703  0.2586091297296932  0.7413909065214733  1.0000
