data_image0
_chemical_formula_structural       Y2PdI6
_chemical_formula_sum              "Y2 Pd1 I6"
_cell_length_a       7.675273616001809
_cell_length_b       7.675273598364956
_cell_length_c       7.675273560546111
_cell_angle_alpha    60.00000035520798
_cell_angle_beta     60.00000013827489
_cell_angle_gamma    60.00000014943084

_space_group_name_H-M_alt    "P 1"
_space_group_IT_number       1

loop_
  _space_group_symop_operation_xyz
  'x, y, z'

loop_
  _atom_site_type_symbol
  _atom_site_label
  _atom_site_symmetry_multiplicity
  _atom_site_fract_x
  _atom_site_fract_y
  _atom_site_fract_z
  _atom_site_occupancy
  Y   Y1        1.0  0.2500000375987207  0.24999999514756868  0.249999992884312  1.0000
  Y   Y2        1.0  0.7500000419804621  0.750000017356744  0.7499999655316381  1.0000
  Pd  Pd1       1.0  1.2463207116834153e-09  0.9999999872343848  5.759647228370754e-09  1.0000
  I   I1        1.0  0.2504287618406926  0.25042876312378515  0.7495712402255124  1.0000
  I   I2        1.0  0.7495712242805556  0.749571258954739  0.2504287614351845  1.0000
  I   I3        1.0  0.749571247256893  0.2504287336875843  0.25042878095547993  1.0000
  I   I4        1.0  0.25042872517317155  0.7495712437112868  0.7495712329531283  1.0000
  I   I5        1.0  0.2504287290233284  0.7495712472207812  0.25042877138188474  1.0000
  I   I6        1.0  0.7495712319787015  0.25042875092221445  0.7495712469888746  1.0000
