data_image0
_chemical_formula_structural       Y2PdF6
_chemical_formula_sum              "Y2 Pd1 F6"
_cell_length_a       5.434457184298435
_cell_length_b       5.434457707662911
_cell_length_c       5.434456985845107
_cell_angle_alpha    60.00000117428938
_cell_angle_beta     60.000001072762224
_cell_angle_gamma    60.0000027578248

_space_group_name_H-M_alt    "P 1"
_space_group_IT_number       1

loop_
  _space_group_symop_operation_xyz
  'x, y, z'

loop_
  _atom_site_type_symbol
  _atom_site_label
  _atom_site_symmetry_multiplicity
  _atom_site_fract_x
  _atom_site_fract_y
  _atom_site_fract_z
  _atom_site_occupancy
  Y   Y1        1.0  0.25000012233327923  0.25000021015651697  0.2499998047977621  1.0000
  Y   Y2        1.0  0.7499998084307234  0.7499999859212796  0.7500003471718404  1.0000
  Pd  Pd1       1.0  0.9999999913498939  4.5073304641316994e-08  0.9999999817883997  1.0000
  F   F1        1.0  0.26796226745479823  0.2679620303654906  0.7320378837030974  1.0000
  F   F2        1.0  0.7320378067041025  0.7320378885114965  0.2679619542666455  1.0000
  F   F3        1.0  0.7320378473904274  0.26796221434686573  0.26796204176773186  1.0000
  F   F4        1.0  0.26796209617023997  0.7320376819934618  0.732038054940373  1.0000
  F   F5        1.0  0.2679623833614245  0.7320376446054416  0.2679619650308896  1.0000
  F   F6        1.0  0.732037643665734  0.26796229455452825  0.7320380004500681  1.0000
