data_image0
_chemical_formula_structural       Y2PF6
_chemical_formula_sum              "Y2 P1 F6"
_cell_length_a       6.799102846752623
_cell_length_b       7.024157056061072
_cell_length_c       5.9101988135377015
_cell_angle_alpha    55.74876666740987
_cell_angle_beta     58.328846230710596
_cell_angle_gamma    51.55789076642257

_space_group_name_H-M_alt    "P 1"
_space_group_IT_number       1

loop_
  _space_group_symop_operation_xyz
  'x, y, z'

loop_
  _atom_site_type_symbol
  _atom_site_label
  _atom_site_symmetry_multiplicity
  _atom_site_fract_x
  _atom_site_fract_y
  _atom_site_fract_z
  _atom_site_occupancy
  Y   Y1        1.0  0.47719927697451225  0.4418464150928112  0.014641458492502929  1.0000
  Y   Y2        1.0  0.7835564807725077  0.9585689180286405  0.7226018778021092  1.0000
  P   P1        1.0  0.051680848261966734  0.9830164970630401  0.09934721359238206  1.0000
  F   F1        1.0  0.6532744958594525  0.6748964725236692  0.8858446637016413  1.0000
  F   F2        1.0  0.5156746001730602  0.0697780734329998  0.09637284892782697  1.0000
  F   F3        1.0  0.531870787952046  0.22157673008300038  0.4406690450627194  1.0000
  F   F4        1.0  0.16793811874685657  0.6662221425651529  0.7972804680413609  1.0000
  F   F5        1.0  0.06800844463726707  0.6549582671056764  0.3092020203976562  1.0000
  F   F6        1.0  0.7507973165361168  0.32912151116068084  0.6340291715154592  1.0000
