data_image0
_chemical_formula_structural       Y2PF6
_chemical_formula_sum              "Y2 P1 F6"
_cell_length_a       5.947431994384522
_cell_length_b       5.947462007622188
_cell_length_c       5.947451929065204
_cell_angle_alpha    60.000128393988675
_cell_angle_beta     59.99994768981776
_cell_angle_gamma    60.00000821720567

_space_group_name_H-M_alt    "P 1"
_space_group_IT_number       1

loop_
  _space_group_symop_operation_xyz
  'x, y, z'

loop_
  _atom_site_type_symbol
  _atom_site_label
  _atom_site_symmetry_multiplicity
  _atom_site_fract_x
  _atom_site_fract_y
  _atom_site_fract_z
  _atom_site_occupancy
  Y   Y1        1.0  0.24991291685584732  0.2500409287260148  0.25004975524500583  1.0000
  Y   Y2        1.0  0.7500087751431694  0.7499539070839445  0.7500256802413224  1.0000
  P   P1        1.0  4.7187907656115865e-06  0.9999992051135905  0.9999958572836364  1.0000
  F   F1        1.0  0.27262350184551654  0.2726640988178444  0.7273393042221452  1.0000
  F   F2        1.0  0.7273921940537444  0.7273212785962254  0.2726424667921671  1.0000
  F   F3        1.0  0.7273820457790137  0.27266306225207043  0.27262312452802867  1.0000
  F   F4        1.0  0.27264086739631443  0.7273532762829134  0.7273586226154356  1.0000
  F   F5        1.0  0.27264293636096415  0.7273440626810437  0.2726439202374973  1.0000
  F   F6        1.0  0.7273920650147493  0.2726603753064005  0.727321146143147  1.0000
