data_image0
_chemical_formula_structural       Y2PI6
_chemical_formula_sum              "Y2 P1 I6"
_cell_length_a       7.828303129290193
_cell_length_b       7.828303038257694
_cell_length_c       7.828303053536078
_cell_angle_alpha    60.00000027316424
_cell_angle_beta     60.00000002787972
_cell_angle_gamma    60.0000002539288

_space_group_name_H-M_alt    "P 1"
_space_group_IT_number       1

loop_
  _space_group_symop_operation_xyz
  'x, y, z'

loop_
  _atom_site_type_symbol
  _atom_site_label
  _atom_site_symmetry_multiplicity
  _atom_site_fract_x
  _atom_site_fract_y
  _atom_site_fract_z
  _atom_site_occupancy
  Y   Y1        1.0  0.25000007783992395  0.25000002981612146  0.2499999581675327  1.0000
  Y   Y2        1.0  0.7499999723801607  0.7500000409485912  0.7499998964710209  1.0000
  P   P1        1.0  0.9999999744029363  1.5645086400843132e-09  5.629197321146954e-09  1.0000
  I   I1        1.0  0.2569017298826211  0.25690172189580374  0.7430982750248273  1.0000
  I   I2        1.0  0.7430982830756659  0.7430982659499452  0.2569017763876247  1.0000
  I   I3        1.0  0.7430982522149886  0.2569016957812479  0.2569017647010618  1.0000
  I   I4        1.0  0.25690175955204425  0.7430982513872731  0.7430982782650619  1.0000
  I   I5        1.0  0.2569017094565843  0.7430982599405191  0.2569017627024394  1.0000
  I   I6        1.0  0.743098247971952  0.2569017263407206  0.7430982878765733  1.0000
