data_image0
_chemical_formula_structural       Y2PI6
_chemical_formula_sum              "Y2 P1 I6"
_cell_length_a       7.828811508720948
_cell_length_b       7.828811560174045
_cell_length_c       7.828811457179807
_cell_angle_alpha    60.00000000478976
_cell_angle_beta     60.000000280903045
_cell_angle_gamma    60.0000001779952

_space_group_name_H-M_alt    "P 1"
_space_group_IT_number       1

loop_
  _space_group_symop_operation_xyz
  'x, y, z'

loop_
  _atom_site_type_symbol
  _atom_site_label
  _atom_site_symmetry_multiplicity
  _atom_site_fract_x
  _atom_site_fract_y
  _atom_site_fract_z
  _atom_site_occupancy
  Y   Y1        1.0  0.249999972602458  0.24999998046828215  0.25000003316948477  1.0000
  Y   Y2        1.0  0.7500000204113378  0.7500000008523182  0.7499999201280878  1.0000
  P   P1        1.0  0.9999999843866297  0.9999999937423715  0.9999999968848353  1.0000
  I   I1        1.0  0.25689885878525387  0.2568988772973406  0.7431011392698584  1.0000
  I   I2        1.0  0.7431011533873754  0.7431011306181805  0.25689889844681724  1.0000
  I   I3        1.0  0.7431011297759735  0.25689885675041435  0.2568989011148144  1.0000
  I   I4        1.0  0.2568988904717504  0.743101140214257  0.7431011035517452  1.0000
  I   I5        1.0  0.2568988555884777  0.7431011333160261  0.25689890066698867  1.0000
  I   I6        1.0  0.7431011341022137  0.256898893372381  0.7431010967522208  1.0000
