data_image0
_chemical_formula_structural       Y2PO6
_chemical_formula_sum              "Y2 P1 O6"
_cell_length_a       5.100165168735946
_cell_length_b       5.100165806701887
_cell_length_c       5.10016542140513
_cell_angle_alpha    60.000001283169055
_cell_angle_beta     60.00000319403216
_cell_angle_gamma    60.00000098856694

_space_group_name_H-M_alt    "P 1"
_space_group_IT_number       1

loop_
  _space_group_symop_operation_xyz
  'x, y, z'

loop_
  _atom_site_type_symbol
  _atom_site_label
  _atom_site_symmetry_multiplicity
  _atom_site_fract_x
  _atom_site_fract_y
  _atom_site_fract_z
  _atom_site_occupancy
  Y   Y1        1.0  0.24999998737413345  0.2499999621717557  0.25000001819808143  1.0000
  Y   Y2        1.0  0.7500000578283047  0.7499999729650301  0.7500000086129901  1.0000
  P   P1        1.0  0.9999999308661665  2.4013826513710398e-08  4.913514305536226e-09  1.0000
  O   O1        1.0  0.2395126603962266  0.23951265793704815  0.7604873353406822  1.0000
  O   O2        1.0  0.7604872988626951  0.760487351642598  0.239512597223957  1.0000
  O   O3        1.0  0.760487248815949  0.23951272261102644  0.23951269648484458  1.0000
  O   O4        1.0  0.2395126772591945  0.7604873253907373  0.7604872962036863  1.0000
  O   O5        1.0  0.2395126660130168  0.7604873781063745  0.2395126500482832  1.0000
  O   O6        1.0  0.7604872910956405  0.2395126650926221  0.7604873765821727  1.0000
