data_image0
_chemical_formula_structural       Y2PSe6
_chemical_formula_sum              "Y2 P1 Se6"
_cell_length_a       6.564491272960454
_cell_length_b       6.564491157474199
_cell_length_c       6.564491345560168
_cell_angle_alpha    59.99999988940889
_cell_angle_beta     59.999999961343775
_cell_angle_gamma    60.00000030471942

_space_group_name_H-M_alt    "P 1"
_space_group_IT_number       1

loop_
  _space_group_symop_operation_xyz
  'x, y, z'

loop_
  _atom_site_type_symbol
  _atom_site_label
  _atom_site_symmetry_multiplicity
  _atom_site_fract_x
  _atom_site_fract_y
  _atom_site_fract_z
  _atom_site_occupancy
  Y   Y1        1.0  0.2500000175109427  0.24999996211459302  0.25000002567383633  1.0000
  Y   Y2        1.0  0.7499998963528297  0.7499999591065385  0.7500000638896265  1.0000
  P   P1        1.0  1.4782378134953866e-08  2.4254254058282502e-08  2.0088713231434286e-08  1.0000
  Se  Se1       1.0  0.24669258728489227  0.24669259089347736  0.7533073863377822  1.0000
  Se  Se2       1.0  0.7533073745324291  0.7533074292103806  0.24669260238729293  1.0000
  Se  Se3       1.0  0.7533073874762319  0.24669263175823877  0.2466926043945621  1.0000
  Se  Se4       1.0  0.2466927037975258  0.7533073640913669  0.7533073606730193  1.0000
  Se  Se5       1.0  0.2466926388280048  0.7533074009551929  0.24669257931612285  1.0000
  Se  Se6       1.0  0.7533073769851154  0.24669264713434258  0.7533073653715199  1.0000
