data_image0
_chemical_formula_structural       Y2PS6
_chemical_formula_sum              "Y2 P1 S6"
_cell_length_a       6.263202432151879
_cell_length_b       6.263202539828658
_cell_length_c       6.263202637312019
_cell_angle_alpha    59.999999510171165
_cell_angle_beta     59.99999963041992
_cell_angle_gamma    60.00000119487037

_space_group_name_H-M_alt    "P 1"
_space_group_IT_number       1

loop_
  _space_group_symop_operation_xyz
  'x, y, z'

loop_
  _atom_site_type_symbol
  _atom_site_label
  _atom_site_symmetry_multiplicity
  _atom_site_fract_x
  _atom_site_fract_y
  _atom_site_fract_z
  _atom_site_occupancy
  Y   Y1        1.0  0.2500000754652515  0.24999993830240433  0.25000000750008644  1.0000
  Y   Y2        1.0  0.7500000404833292  0.7500000573843821  0.7500000309403133  1.0000
  P   P1        1.0  0.9999999682301997  0.9999999902226944  0.9999999840511261  1.0000
  S   S1        1.0  0.2454013078829011  0.24540134378126713  0.7545986887407302  1.0000
  S   S2        1.0  0.754598688881783  0.7545986499500569  0.2454013112784587  1.0000
  S   S3        1.0  0.7545986421825399  0.24540136119837094  0.24540131551762245  1.0000
  S   S4        1.0  0.245401276926166  0.7545986442657184  0.7545986919171367  1.0000
  S   S5        1.0  0.24540132804985376  0.7545986513613828  0.24540129930515003  1.0000
  S   S6        1.0  0.7545986564612656  0.24540134041448008  0.7545986663062434  1.0000
