data_image0
_chemical_formula_structural       Y2PtS6
_chemical_formula_sum              "Y2 Pt1 S6"
_cell_length_a       6.3639096370490575
_cell_length_b       6.363909490874073
_cell_length_c       6.363909622859603
_cell_angle_alpha    59.999999769659986
_cell_angle_beta     59.999999410540255
_cell_angle_gamma    60.000000017977634

_space_group_name_H-M_alt    "P 1"
_space_group_IT_number       1

loop_
  _space_group_symop_operation_xyz
  'x, y, z'

loop_
  _atom_site_type_symbol
  _atom_site_label
  _atom_site_symmetry_multiplicity
  _atom_site_fract_x
  _atom_site_fract_y
  _atom_site_fract_z
  _atom_site_occupancy
  Y   Y1        1.0  0.2499999895226522  0.24999998786278727  0.2500000389750739  1.0000
  Y   Y2        1.0  0.750000002784638  0.7500000405690208  0.7499999513312747  1.0000
  Pt  Pt1       1.0  3.3430581543829575e-08  0.9999999595851541  2.0777103920070935e-08  1.0000
  S   S1        1.0  0.25667248521059477  0.25667251557770265  0.7433274673267866  1.0000
  S   S2        1.0  0.7433274884207401  0.743327509005072  0.2566725153857233  1.0000
  S   S3        1.0  0.7433274997424476  0.25667251323423523  0.25667251516693224  1.0000
  S   S4        1.0  0.256672494599424  0.7433275036504738  0.7433274861811195  1.0000
  S   S5        1.0  0.25667250208373305  0.743327501841217  0.2566725206654213  1.0000
  S   S6        1.0  0.7433275160850223  0.25667247077961297  0.7433274767588781  1.0000
