data_image0
_chemical_formula_structural       Y2PtI6
_chemical_formula_sum              "Y2 Pt1 I6"
_cell_length_a       7.703686535087713
_cell_length_b       7.703686589828043
_cell_length_c       7.7036866051342585
_cell_angle_alpha    59.999999854078325
_cell_angle_beta     60.0000000928761
_cell_angle_gamma    60.00000030489103

_space_group_name_H-M_alt    "P 1"
_space_group_IT_number       1

loop_
  _space_group_symop_operation_xyz
  'x, y, z'

loop_
  _atom_site_type_symbol
  _atom_site_label
  _atom_site_symmetry_multiplicity
  _atom_site_fract_x
  _atom_site_fract_y
  _atom_site_fract_z
  _atom_site_occupancy
  Y   Y1        1.0  0.25000001679475936  0.2500000026196031  0.24999994382095603  1.0000
  Y   Y2        1.0  0.7500000042822739  0.7499999887810097  0.7499999990530694  1.0000
  Pt  Pt1       1.0  0.99999998122617  0.9999999888712839  0.9999999824992779  1.0000
  I   I1        1.0  0.24914394698461298  0.24914395990874708  0.7508560529674672  1.0000
  I   I2        1.0  0.750856075666637  0.7508560537492979  0.24914393900048454  1.0000
  I   I3        1.0  0.7508560408515695  0.24914395713307547  0.2491439708829898  1.0000
  I   I4        1.0  0.24914393920980182  0.7508560628842356  0.7508560690561036  1.0000
  I   I5        1.0  0.24914394599403172  0.7508560545477697  0.24914396391346846  1.0000
  I   I6        1.0  0.7508560451960556  0.2491439320833932  0.7508560819620218  1.0000
