data_image0
_chemical_formula_structural       Y2PtSe6
_chemical_formula_sum              "Y2 Pt1 Se6"
_cell_length_a       6.688612165732261
_cell_length_b       6.688612203876747
_cell_length_c       6.688612284171114
_cell_angle_alpha    59.99999973461329
_cell_angle_beta     59.999999191272025
_cell_angle_gamma    60.00000037272987

_space_group_name_H-M_alt    "P 1"
_space_group_IT_number       1

loop_
  _space_group_symop_operation_xyz
  'x, y, z'

loop_
  _atom_site_type_symbol
  _atom_site_label
  _atom_site_symmetry_multiplicity
  _atom_site_fract_x
  _atom_site_fract_y
  _atom_site_fract_z
  _atom_site_occupancy
  Y   Y1        1.0  0.2500000162702187  0.249999977083916  0.25000001330428023  1.0000
  Y   Y2        1.0  0.7499999730239775  0.749999982522258  0.7499999101384738  1.0000
  Pt  Pt1       1.0  1.3254479279293625e-09  0.9999999908445518  7.418368665259738e-08  1.0000
  Se  Se1       1.0  0.2571765563521472  0.2571765771901096  0.7428234204672867  1.0000
  Se  Se2       1.0  0.7428234312844681  0.7428234391798443  0.25717659951387806  1.0000
  Se  Se3       1.0  0.7428234441757748  0.25717655033081693  0.2571765885873055  1.0000
  Se  Se4       1.0  0.25717661507969897  0.7428234220929852  0.7428233891510153  1.0000
  Se  Se5       1.0  0.2571765383387939  0.742823448424959  0.2571765907703786  1.0000
  Se  Se6       1.0  0.7428234329227364  0.25717661189114704  0.7428234109400175  1.0000
