data_image0
_chemical_formula_structural       Y2PtF6
_chemical_formula_sum              "Y2 Pt1 F6"
_cell_length_a       5.457334878232353
_cell_length_b       5.457334060693562
_cell_length_c       5.457331165559872
_cell_angle_alpha    59.99999821954195
_cell_angle_beta     59.99999842945629
_cell_angle_gamma    59.999998900286904

_space_group_name_H-M_alt    "P 1"
_space_group_IT_number       1

loop_
  _space_group_symop_operation_xyz
  'x, y, z'

loop_
  _atom_site_type_symbol
  _atom_site_label
  _atom_site_symmetry_multiplicity
  _atom_site_fract_x
  _atom_site_fract_y
  _atom_site_fract_z
  _atom_site_occupancy
  Y   Y1        1.0  0.2500017322888837  0.25000153875973413  0.2499909395419177  1.0000
  Y   Y2        1.0  0.7499951165660135  0.7499969365610873  0.7500031780016136  1.0000
  Pt  Pt1       1.0  3.6764762713243456e-07  2.6930518313231454e-08  6.767644653105806e-07  1.0000
  F   F1        1.0  0.2600390058145348  0.2600385528704663  0.7399638920969094  1.0000
  F   F2        1.0  0.7399613507375578  0.7399614978904332  0.2600376686111098  1.0000
  F   F3        1.0  0.7399624877737182  0.26003991249849295  0.26003603823555516  1.0000
  F   F4        1.0  0.2600397774984483  0.73995805562775  0.7399665091368866  1.0000
  F   F5        1.0  0.2600411147888935  0.7399637748044648  0.26003548510925906  1.0000
  F   F6        1.0  0.7399589674756077  0.2600396759470221  0.7399656964756023  1.0000
