data_image0
_chemical_formula_structural       Y2PtBr6
_chemical_formula_sum              "Y2 Pt1 Br6"
_cell_length_a       7.143320226895969
_cell_length_b       7.143320477836263
_cell_length_c       7.143320315836239
_cell_angle_alpha    60.00000126513445
_cell_angle_beta     60.00000198965786
_cell_angle_gamma    60.0000008209364

_space_group_name_H-M_alt    "P 1"
_space_group_IT_number       1

loop_
  _space_group_symop_operation_xyz
  'x, y, z'

loop_
  _atom_site_type_symbol
  _atom_site_label
  _atom_site_symmetry_multiplicity
  _atom_site_fract_x
  _atom_site_fract_y
  _atom_site_fract_z
  _atom_site_occupancy
  Y   Y1        1.0  0.24999992855336872  0.25000004667998044  0.2500000055858754  1.0000
  Y   Y2        1.0  0.7499999573511903  0.7500000371680453  0.7499998927538446  1.0000
  Pt  Pt1       1.0  2.994542032168997e-08  1.200172086276933e-08  0.9999999650273378  1.0000
  Br  Br1       1.0  0.24492738561594118  0.24492727937565664  0.755072693084302  1.0000
  Br  Br2       1.0  0.755072645071128  0.7550726998859411  0.24492735314648584  1.0000
  Br  Br3       1.0  0.7550726904022838  0.24492730858893333  0.24492737593029287  1.0000
  Br  Br4       1.0  0.2449273321211739  0.7550726466692222  0.755072690583749  1.0000
  Br  Br5       1.0  0.24492734900842164  0.7550726123155737  0.244927376291015  1.0000
  Br  Br6       1.0  0.7550726752127432  0.24492736694602407  0.7550726367750852  1.0000
