data_image0
_chemical_formula_structural       Y2PtCl6
_chemical_formula_sum              "Y2 Pt1 Cl6"
_cell_length_a       6.9642673937506485
_cell_length_b       6.964267310579449
_cell_length_c       6.964267360484539
_cell_angle_alpha    59.99999753791946
_cell_angle_beta     59.999997687527575
_cell_angle_gamma    59.99999750269261

_space_group_name_H-M_alt    "P 1"
_space_group_IT_number       1

loop_
  _space_group_symop_operation_xyz
  'x, y, z'

loop_
  _atom_site_type_symbol
  _atom_site_label
  _atom_site_symmetry_multiplicity
  _atom_site_fract_x
  _atom_site_fract_y
  _atom_site_fract_z
  _atom_site_occupancy
  Y   Y1        1.0  0.2500001551280016  0.2500002678729584  0.24999954841303473  1.0000
  Y   Y2        1.0  0.7500001361709474  0.7499998662782879  0.7499999620049292  1.0000
  Pt  Pt1       1.0  0.9999999816782835  0.9999999753794214  6.454818488693185e-08  1.0000
  Cl  Cl1       1.0  0.24682994974063097  0.24682995077088324  0.7531701371209496  1.0000
  Cl  Cl2       1.0  0.7531700212758614  0.753169995208798  0.24683003531998107  1.0000
  Cl  Cl3       1.0  0.7531700607157062  0.2468299930777157  0.24682988125305724  1.0000
  Cl  Cl4       1.0  0.24682990645028224  0.7531698649713314  0.7531702236422474  1.0000
  Cl  Cl5       1.0  0.24682987853755964  0.7531700312913138  0.2468300044311263  1.0000
  Cl  Cl6       1.0  0.7531699111811047  0.24683006065322535  0.7531701483428586  1.0000
