data_image0
_chemical_formula_structural       Y2ReO6
_chemical_formula_sum              "Y2 Re1 O6"
_cell_length_a       5.3736635786784355
_cell_length_b       5.373663634441442
_cell_length_c       5.373663531075759
_cell_angle_alpha    60.00000064491068
_cell_angle_beta     59.99999944211312
_cell_angle_gamma    60.00000016437484

_space_group_name_H-M_alt    "P 1"
_space_group_IT_number       1

loop_
  _space_group_symop_operation_xyz
  'x, y, z'

loop_
  _atom_site_type_symbol
  _atom_site_label
  _atom_site_symmetry_multiplicity
  _atom_site_fract_x
  _atom_site_fract_y
  _atom_site_fract_z
  _atom_site_occupancy
  Y   Y1        1.0  0.24999991446633885  0.24999997241035593  0.25000009488004427  1.0000
  Y   Y2        1.0  0.7500000678476213  0.7499999559768166  0.7500000583806861  1.0000
  Re  Re1       1.0  6.978247477324347e-08  0.9999999840458677  0.9999999861123231  1.0000
  O   O1        1.0  0.24908399635297496  0.2490841293867964  0.750915913013159  1.0000
  O   O2        1.0  0.7509160180181277  0.75091588332936  0.24908396432595212  1.0000
  O   O3        1.0  0.750915890980304  0.2490840497172675  0.24908405786754526  1.0000
  O   O4        1.0  0.249084062594623  0.7509159584405658  0.7509158856455165  1.0000
  O   O5        1.0  0.2490840368022303  0.7509160616194661  0.24908410322562313  1.0000
  O   O6        1.0  0.7509159531274644  0.24908403086735229  0.7509159139323657  1.0000
