data_image0
_chemical_formula_structural       Y2ReF6
_chemical_formula_sum              "Y2 Re1 F6"
_cell_length_a       5.250820604893389
_cell_length_b       5.250820659848855
_cell_length_c       5.250820589610491
_cell_angle_alpha    60.000000146563316
_cell_angle_beta     60.0000003465108
_cell_angle_gamma    60.00000145547795

_space_group_name_H-M_alt    "P 1"
_space_group_IT_number       1

loop_
  _space_group_symop_operation_xyz
  'x, y, z'

loop_
  _atom_site_type_symbol
  _atom_site_label
  _atom_site_symmetry_multiplicity
  _atom_site_fract_x
  _atom_site_fract_y
  _atom_site_fract_z
  _atom_site_occupancy
  Y   Y1        1.0  0.2499999814600646  0.2500000416196048  0.24999998745867355  1.0000
  Y   Y2        1.0  0.7500000171520835  0.749999998904747  0.7499999318331829  1.0000
  Re  Re1       1.0  2.2257652011093843e-08  0.9999999860051039  0.9999999673016586  1.0000
  F   F1        1.0  0.27488516484701275  0.27488516533735224  0.7251148539316954  1.0000
  F   F2        1.0  0.7251148269468579  0.725114809877482  0.2748852099785201  1.0000
  F   F3        1.0  0.7251148137407873  0.2748851931740874  0.27488520820316764  1.0000
  F   F4        1.0  0.27488515501793687  0.7251147983681259  0.7251148533475389  1.0000
  F   F5        1.0  0.2748851471507569  0.7251148119666706  0.2748851921542293  1.0000
  F   F6        1.0  0.7251148816273824  0.27488518424050906  0.725114793251609  1.0000
