data_image0
_chemical_formula_structural       Y2ReTe6
_chemical_formula_sum              "Y2 Re1 Te6"
_cell_length_a       7.2315649401264634
_cell_length_b       7.231564988242704
_cell_length_c       7.231565099092601
_cell_angle_alpha    60.000000047736684
_cell_angle_beta     59.99999918837679
_cell_angle_gamma    59.99999895247826

_space_group_name_H-M_alt    "P 1"
_space_group_IT_number       1

loop_
  _space_group_symop_operation_xyz
  'x, y, z'

loop_
  _atom_site_type_symbol
  _atom_site_label
  _atom_site_symmetry_multiplicity
  _atom_site_fract_x
  _atom_site_fract_y
  _atom_site_fract_z
  _atom_site_occupancy
  Y   Y1        1.0  0.2500000273371069  0.2499999733069186  0.2499999785041623  1.0000
  Y   Y2        1.0  0.7499999577054965  0.7499999910523661  0.7500000754913686  1.0000
  Re  Re1       1.0  9.677362702017667e-09  0.9999999949191707  0.9999999921704272  1.0000
  Te  Te1       1.0  0.25685766851432335  0.2568576918811325  0.7431423222236135  1.0000
  Te  Te2       1.0  0.7431423082207124  0.7431423453033701  0.2568576912161336  1.0000
  Te  Te3       1.0  0.7431423573482401  0.2568576878943783  0.25685765194278937  1.0000
  Te  Te4       1.0  0.25685768045075463  0.7431423289668068  0.743142320384239  1.0000
  Te  Te5       1.0  0.2568576965805206  0.7431423393020581  0.2568576105732188  1.0000
  Te  Te6       1.0  0.7431422971874724  0.2568576419933231  0.7431423642158965  1.0000
