data_image0
_chemical_formula_structural       Y2ReBr6
_chemical_formula_sum              "Y2 Re1 Br6"
_cell_length_a       7.149633643718933
_cell_length_b       7.149633099463198
_cell_length_c       7.149633277352684
_cell_angle_alpha    59.99999942811988
_cell_angle_beta     60.000002754244576
_cell_angle_gamma    60.00000214648176

_space_group_name_H-M_alt    "P 1"
_space_group_IT_number       1

loop_
  _space_group_symop_operation_xyz
  'x, y, z'

loop_
  _atom_site_type_symbol
  _atom_site_label
  _atom_site_symmetry_multiplicity
  _atom_site_fract_x
  _atom_site_fract_y
  _atom_site_fract_z
  _atom_site_occupancy
  Y   Y1        1.0  0.2500002058316432  0.2500000180796959  0.249999886509144  1.0000
  Y   Y2        1.0  0.7499999826521765  0.7499999480319605  0.7500000832019462  1.0000
  Re  Re1       1.0  0.9999999962968663  0.9999999965739642  6.361930938197046e-09  1.0000
  Br  Br1       1.0  0.24499693847169238  0.24499687987391822  0.7550030866302526  1.0000
  Br  Br2       1.0  0.7550030172155899  0.7550031547584418  0.24499690647448089  1.0000
  Br  Br3       1.0  0.7550030484574067  0.24499692283928542  0.2449969127807864  1.0000
  Br  Br4       1.0  0.24499687094867426  0.7550030946628952  0.75500311262433  1.0000
  Br  Br5       1.0  0.2449968733844355  0.755003095251897  0.244996902604685  1.0000
  Br  Br6       1.0  0.7550030594318785  0.24499689655501697  0.755003099570812  1.0000
