data_image0
_chemical_formula_structural       Y2ReS6
_chemical_formula_sum              "Y2 Re1 S6"
_cell_length_a       6.420523428826466
_cell_length_b       6.420523784071267
_cell_length_c       6.420523746561597
_cell_angle_alpha    59.999999002079704
_cell_angle_beta     59.999998765472554
_cell_angle_gamma    60.000000212823984

_space_group_name_H-M_alt    "P 1"
_space_group_IT_number       1

loop_
  _space_group_symop_operation_xyz
  'x, y, z'

loop_
  _atom_site_type_symbol
  _atom_site_label
  _atom_site_symmetry_multiplicity
  _atom_site_fract_x
  _atom_site_fract_y
  _atom_site_fract_z
  _atom_site_occupancy
  Y   Y1        1.0  0.24999999493891345  0.24999996089554544  0.2500000060641368  1.0000
  Y   Y2        1.0  0.7499999919918326  0.7499999151149301  0.7499999594530835  1.0000
  Re  Re1       1.0  0.9999999983106421  0.9999999942773596  2.8626084538585494e-08  1.0000
  S   S1        1.0  0.25645751961075247  0.2564575463192501  0.7435424660419423  1.0000
  S   S2        1.0  0.7435424567629787  0.7435424746647705  0.2564575335048586  1.0000
  S   S3        1.0  0.7435424496109689  0.25645755952929544  0.25645759942202917  1.0000
  S   S4        1.0  0.25645761308847637  0.7435424614547239  0.7435424410672037  1.0000
  S   S5        1.0  0.2564575291052405  0.7435424916634604  0.2564575706086881  1.0000
  S   S6        1.0  0.7435424563324131  0.25645758845450667  0.7435424166442526  1.0000
