data_image0
_chemical_formula_structural       Y2ReI6
_chemical_formula_sum              "Y2 Re1 I6"
_cell_length_a       7.779566241134803
_cell_length_b       7.779566259930585
_cell_length_c       7.7795661677093815
_cell_angle_alpha    59.99999889480278
_cell_angle_beta     60.000000325030065
_cell_angle_gamma    59.999998672493554

_space_group_name_H-M_alt    "P 1"
_space_group_IT_number       1

loop_
  _space_group_symop_operation_xyz
  'x, y, z'

loop_
  _atom_site_type_symbol
  _atom_site_label
  _atom_site_symmetry_multiplicity
  _atom_site_fract_x
  _atom_site_fract_y
  _atom_site_fract_z
  _atom_site_occupancy
  Y   Y1        1.0  0.25000008138799473  0.2499999279736676  0.24999999973138143  1.0000
  Y   Y2        1.0  0.7500000138879421  0.7500000027500956  0.7499999290779118  1.0000
  Re  Re1       1.0  1.0299879443986433e-08  4.722929660523201e-09  5.3427826139975045e-09  1.0000
  I   I1        1.0  0.24760265650299051  0.24760266098358372  0.7523973554836816  1.0000
  I   I2        1.0  0.7523972968356877  0.7523973704960187  0.24760267618311838  1.0000
  I   I3        1.0  0.7523973497199753  0.2476026319693896  0.24760268434174756  1.0000
  I   I4        1.0  0.2476026561239478  0.7523973444093629  0.7523973344832496  1.0000
  I   I5        1.0  0.24760263066024357  0.7523973671710558  0.24760266922416407  1.0000
  I   I6        1.0  0.7523973073855158  0.24760268792319723  0.7523973441421639  1.0000
