data_image0
_chemical_formula_structural       Y2ReCl6
_chemical_formula_sum              "Y2 Re1 Cl6"
_cell_length_a       6.814577030887657
_cell_length_b       6.814577439030337
_cell_length_c       6.814577111686522
_cell_angle_alpha    59.999997752550215
_cell_angle_beta     60.00000054499182
_cell_angle_gamma    59.999998411864176

_space_group_name_H-M_alt    "P 1"
_space_group_IT_number       1

loop_
  _space_group_symop_operation_xyz
  'x, y, z'

loop_
  _atom_site_type_symbol
  _atom_site_label
  _atom_site_symmetry_multiplicity
  _atom_site_fract_x
  _atom_site_fract_y
  _atom_site_fract_z
  _atom_site_occupancy
  Y   Y1        1.0  0.24999961071011567  0.250000076207474  0.2500004847828531  1.0000
  Y   Y2        1.0  0.7500000306603651  0.7500001405575814  0.749999437543262  1.0000
  Re  Re1       1.0  0.999999977681342  0.9999999856220572  6.677390282580491e-08  1.0000
  Cl  Cl1       1.0  0.24631508226563323  0.2463148768548839  0.7536848753881946  1.0000
  Cl  Cl2       1.0  0.7536850857609316  0.7536850307844222  0.24631513774494448  1.0000
  Cl  Cl3       1.0  0.7536850479002422  0.24631486731436292  0.2463150953090686  1.0000
  Cl  Cl4       1.0  0.24631503283686473  0.7536849971911226  0.7536849654264006  1.0000
  Cl  Cl5       1.0  0.24631488883080283  0.7536850030816086  0.24631507251389667  1.0000
  Cl  Cl6       1.0  0.7536852332721036  0.246315032161926  0.7536848616254487  1.0000
