data_image0
_chemical_formula_structural       Y2RhI6
_chemical_formula_sum              "Y2 Rh1 I6"
_cell_length_a       7.67214072951365
_cell_length_b       7.672140775672492
_cell_length_c       7.672140799151302
_cell_angle_alpha    59.99999925588517
_cell_angle_beta     59.99999960917994
_cell_angle_gamma    60.000000032546815

_space_group_name_H-M_alt    "P 1"
_space_group_IT_number       1

loop_
  _space_group_symop_operation_xyz
  'x, y, z'

loop_
  _atom_site_type_symbol
  _atom_site_label
  _atom_site_symmetry_multiplicity
  _atom_site_fract_x
  _atom_site_fract_y
  _atom_site_fract_z
  _atom_site_occupancy
  Y   Y1        1.0  0.25000000633009134  0.2500000009507558  0.24999995071294603  1.0000
  Y   Y2        1.0  0.7500000141569086  0.7499999405944797  0.7500000551286462  1.0000
  Rh  Rh1       1.0  0.9999999751287509  0.9999999888255254  1.4112610402302128e-08  1.0000
  I   I1        1.0  0.2465108444741868  0.24651087475489147  0.7534891417364991  1.0000
  I   I2        1.0  0.7534891456820969  0.7534891577824935  0.2465108350777933  1.0000
  I   I3        1.0  0.7534891419865702  0.24651089460686737  0.2465108678809669  1.0000
  I   I4        1.0  0.2465108642088814  0.7534891123888614  0.7534891280221585  1.0000
  I   I5        1.0  0.24651089730807643  0.7534891318736866  0.24651085904327383  1.0000
  I   I6        1.0  0.7534891110001827  0.24651089587463765  0.753489148888659  1.0000
