data_image0
_chemical_formula_structural       Y2RhO6
_chemical_formula_sum              "Y2 Rh1 O6"
_cell_length_a       5.308217554538509
_cell_length_b       5.308217671783537
_cell_length_c       5.308217621727431
_cell_angle_alpha    59.999999558564994
_cell_angle_beta     59.99999990429847
_cell_angle_gamma    59.999999728900114

_space_group_name_H-M_alt    "P 1"
_space_group_IT_number       1

loop_
  _space_group_symop_operation_xyz
  'x, y, z'

loop_
  _atom_site_type_symbol
  _atom_site_label
  _atom_site_symmetry_multiplicity
  _atom_site_fract_x
  _atom_site_fract_y
  _atom_site_fract_z
  _atom_site_occupancy
  Y   Y1        1.0  0.24999993443753882  0.25000001220908913  0.24999999179115814  1.0000
  Y   Y2        1.0  0.7500000043419478  0.7500000273982184  0.7499999077314065  1.0000
  Rh  Rh1       1.0  6.130059069269443e-09  2.0765357511259735e-08  5.391006807346461e-09  1.0000
  O   O1        1.0  0.2557063232702053  0.2557063737502295  0.744293671055256  1.0000
  O   O2        1.0  0.7442936495677545  0.7442936289408848  0.2557063975607343  1.0000
  O   O3        1.0  0.7442937216320705  0.25570626778658245  0.2557063567968313  1.0000
  O   O4        1.0  0.25570638251606553  0.7442936933738161  0.744293640555228  1.0000
  O   O5        1.0  0.2557063125839789  0.7442936243105327  0.2557063753166258  1.0000
  O   O6        1.0  0.7442936628251515  0.25570635761522437  0.744293651531927  1.0000
