data_image0
_chemical_formula_structural       Y2RhCl6
_chemical_formula_sum              "Y2 Rh1 Cl6"
_cell_length_a       6.807936403098485
_cell_length_b       6.807936512582017
_cell_length_c       6.80793652870919
_cell_angle_alpha    59.99999715589663
_cell_angle_beta     59.99999654434999
_cell_angle_gamma    59.999999575619434

_space_group_name_H-M_alt    "P 1"
_space_group_IT_number       1

loop_
  _space_group_symop_operation_xyz
  'x, y, z'

loop_
  _atom_site_type_symbol
  _atom_site_label
  _atom_site_symmetry_multiplicity
  _atom_site_fract_x
  _atom_site_fract_y
  _atom_site_fract_z
  _atom_site_occupancy
  Y   Y1        1.0  0.25000047023157196  0.2500005614690093  0.24999964917354137  1.0000
  Y   Y2        1.0  0.7500002591579088  0.7499995723860046  0.7499993792296655  1.0000
  Rh  Rh1       1.0  0.9999999310591743  0.9999999982010025  7.062288577268633e-08  1.0000
  Cl  Cl1       1.0  0.24747559172071326  0.2474757019483378  0.7525243546117416  1.0000
  Cl  Cl2       1.0  0.7525241972539438  0.7525243833337606  0.24747593944413196  1.0000
  Cl  Cl3       1.0  0.7525241643747099  0.2474755869086026  0.24747583644230176  1.0000
  Cl  Cl4       1.0  0.2474756683608837  0.7525242195291545  0.7525244796784785  1.0000
  Cl  Cl5       1.0  0.2474756051587511  0.752524030245345  0.24747588587236766  1.0000
  Cl  Cl6       1.0  0.7525241049571534  0.24747595069499959  0.7525244131202055  1.0000
