data_image0
_chemical_formula_structural       Y2RhBr6
_chemical_formula_sum              "Y2 Rh1 Br6"
_cell_length_a       7.082475335059985
_cell_length_b       7.082475360080411
_cell_length_c       7.082475430147242
_cell_angle_alpha    59.99999864387404
_cell_angle_beta     59.99999915376737
_cell_angle_gamma    59.99999860591853

_space_group_name_H-M_alt    "P 1"
_space_group_IT_number       1

loop_
  _space_group_symop_operation_xyz
  'x, y, z'

loop_
  _atom_site_type_symbol
  _atom_site_label
  _atom_site_symmetry_multiplicity
  _atom_site_fract_x
  _atom_site_fract_y
  _atom_site_fract_z
  _atom_site_occupancy
  Y   Y1        1.0  0.25000003709727914  0.2500001893181605  0.24999987066483342  1.0000
  Y   Y2        1.0  0.7500000438652176  0.7499999142937966  0.7500000982004366  1.0000
  Rh  Rh1       1.0  0.9999999764007018  1.2104827724773051e-08  0.9999999986875566  1.0000
  Br  Br1       1.0  0.24488135791785184  0.24488140378004253  0.7551186009506653  1.0000
  Br  Br2       1.0  0.755118613499576  0.7551185735958584  0.24488136861450427  1.0000
  Br  Br3       1.0  0.7551186179847736  0.24488142691386774  0.244881362921288  1.0000
  Br  Br4       1.0  0.24488135639668546  0.7551185660253822  0.7551186693889127  1.0000
  Br  Br5       1.0  0.24488142167365592  0.7551185573671509  0.24488138637368756  1.0000
  Br  Br6       1.0  0.7551185792231403  0.24488135602608976  0.7551186470370069  1.0000
