data_image0
_chemical_formula_structural       Y2RhS6
_chemical_formula_sum              "Y2 Rh1 S6"
_cell_length_a       6.349325298064171
_cell_length_b       6.349325278731846
_cell_length_c       6.3493254616924535
_cell_angle_alpha    59.99999891004463
_cell_angle_beta     59.99999787932264
_cell_angle_gamma    59.99999943991236

_space_group_name_H-M_alt    "P 1"
_space_group_IT_number       1

loop_
  _space_group_symop_operation_xyz
  'x, y, z'

loop_
  _atom_site_type_symbol
  _atom_site_label
  _atom_site_symmetry_multiplicity
  _atom_site_fract_x
  _atom_site_fract_y
  _atom_site_fract_z
  _atom_site_occupancy
  Y   Y1        1.0  0.25000000688663765  0.2500000308505745  0.24999999094346306  1.0000
  Y   Y2        1.0  0.7500000166381855  0.7500000173231781  0.7499999919809095  1.0000
  Rh  Rh1       1.0  0.9999999841650876  3.85787400914751e-09  0.9999999949637262  1.0000
  S   S1        1.0  0.2545650373682645  0.25456502213966326  0.7454349263273616  1.0000
  S   S2        1.0  0.7454349583635356  0.7454349893842849  0.2545650305445183  1.0000
  S   S3        1.0  0.745434946502902  0.2545650292937138  0.25456505714038297  1.0000
  S   S4        1.0  0.2545650520403759  0.7454349301489341  0.74543499996499  1.0000
  S   S5        1.0  0.25456502653088725  0.7454349382021982  0.2545650495448397  1.0000
  S   S6        1.0  0.7454349652516478  0.25456505789025363  0.7454349705664164  1.0000
