data_image0
_chemical_formula_structural       Y2RhCl6
_chemical_formula_sum              "Y2 Rh1 Cl6"
_cell_length_a       6.807820511425433
_cell_length_b       6.807820551559194
_cell_length_c       6.807820626395644
_cell_angle_alpha    59.999999299443424
_cell_angle_beta     60.00000031216075
_cell_angle_gamma    59.999999719327775

_space_group_name_H-M_alt    "P 1"
_space_group_IT_number       1

loop_
  _space_group_symop_operation_xyz
  'x, y, z'

loop_
  _atom_site_type_symbol
  _atom_site_label
  _atom_site_symmetry_multiplicity
  _atom_site_fract_x
  _atom_site_fract_y
  _atom_site_fract_z
  _atom_site_occupancy
  Y   Y1        1.0  0.2499994754928658  0.24999998902215861  0.2500000288509592  1.0000
  Y   Y2        1.0  0.7500003594413241  0.7500000300323941  0.749999588014182  1.0000
  Rh  Rh1       1.0  2.1655900091419968e-08  0.9999999910048674  9.061694161680301e-08  1.0000
  Cl  Cl1       1.0  0.24748159749386767  0.2474815410233732  0.7525185145277161  1.0000
  Cl  Cl2       1.0  0.7525184525765399  0.7525184330555149  0.24748167385494368  1.0000
  Cl  Cl3       1.0  0.7525186549320003  0.24748159453293828  0.24748162584348296  1.0000
  Cl  Cl4       1.0  0.2474814705739443  0.7525183669527661  0.7525184018549006  1.0000
  Cl  Cl5       1.0  0.24748147990196415  0.7525183867348085  0.24748174507853463  1.0000
  Cl  Cl6       1.0  0.7525185038808532  0.24748165390805696  0.7525183300607182  1.0000
