data_image0
_chemical_formula_structural       Y2RhI6
_chemical_formula_sum              "Y2 Rh1 I6"
_cell_length_a       7.673821574198652
_cell_length_b       7.67382160699647
_cell_length_c       7.673821561325542
_cell_angle_alpha    59.99999985694077
_cell_angle_beta     59.99999976728335
_cell_angle_gamma    59.99999928889424

_space_group_name_H-M_alt    "P 1"
_space_group_IT_number       1

loop_
  _space_group_symop_operation_xyz
  'x, y, z'

loop_
  _atom_site_type_symbol
  _atom_site_label
  _atom_site_symmetry_multiplicity
  _atom_site_fract_x
  _atom_site_fract_y
  _atom_site_fract_z
  _atom_site_occupancy
  Y   Y1        1.0  0.25000001552979023  0.24999999336765097  0.25000001512822084  1.0000
  Y   Y2        1.0  0.7500000355556032  0.7499999274348268  0.7499999847132601  1.0000
  Rh  Rh1       1.0  0.9999999713032518  3.192007698167491e-08  1.4025915772880663e-08  1.0000
  I   I1        1.0  0.2465397799846372  0.24653982536184496  0.7534601907711252  1.0000
  I   I2        1.0  0.7534601954366622  0.7534602231209403  0.24653982215619935  1.0000
  I   I3        1.0  0.7534602240824996  0.24653980943578682  0.24653974921845037  1.0000
  I   I4        1.0  0.24653978172282884  0.7534601975508985  0.7534602249584327  1.0000
  I   I5        1.0  0.24653976626717403  0.7534601941642708  0.24653980771694814  1.0000
  I   I6        1.0  0.753460228746896  0.24653980005438386  0.7534601925740277  1.0000
