data_image0
_chemical_formula_structural       Y2RhBr6
_chemical_formula_sum              "Y2 Rh1 Br6"
_cell_length_a       7.0802140427256095
_cell_length_b       7.080214010324809
_cell_length_c       7.080213889849362
_cell_angle_alpha    59.999999926365156
_cell_angle_beta     60.00000055994306
_cell_angle_gamma    60.00000043931225

_space_group_name_H-M_alt    "P 1"
_space_group_IT_number       1

loop_
  _space_group_symop_operation_xyz
  'x, y, z'

loop_
  _atom_site_type_symbol
  _atom_site_label
  _atom_site_symmetry_multiplicity
  _atom_site_fract_x
  _atom_site_fract_y
  _atom_site_fract_z
  _atom_site_occupancy
  Y   Y1        1.0  0.24999998314200866  0.2499999180020661  0.25000008396029105  1.0000
  Y   Y2        1.0  0.7499999231451778  0.7500000774812955  0.7500000001795174  1.0000
  Rh  Rh1       1.0  3.424855656856387e-08  3.372624018938974e-16  0.9999999588651475  1.0000
  Br  Br1       1.0  0.24490757124996243  0.2449075188669727  0.7550924464371398  1.0000
  Br  Br2       1.0  0.7550924508299628  0.7550924766163897  0.24490754167185744  1.0000
  Br  Br3       1.0  0.7550924309453058  0.24490749726343458  0.24490758776846402  1.0000
  Br  Br4       1.0  0.24490753594741724  0.7550925414652612  0.7550924246724948  1.0000
  Br  Br5       1.0  0.2449075817891708  0.7550924894950594  0.2449074804742216  1.0000
  Br  Br6       1.0  0.7550924953620533  0.24490749733923686  0.7550924688874056  1.0000
