data_image0
_chemical_formula_structural       Y2RhF6
_chemical_formula_sum              "Y2 Rh1 F6"
_cell_length_a       5.180524069310449
_cell_length_b       5.180524024298761
_cell_length_c       5.180524072572185
_cell_angle_alpha    59.99999909674155
_cell_angle_beta     59.999998525264765
_cell_angle_gamma    59.99999569872378

_space_group_name_H-M_alt    "P 1"
_space_group_IT_number       1

loop_
  _space_group_symop_operation_xyz
  'x, y, z'

loop_
  _atom_site_type_symbol
  _atom_site_label
  _atom_site_symmetry_multiplicity
  _atom_site_fract_x
  _atom_site_fract_y
  _atom_site_fract_z
  _atom_site_occupancy
  Y   Y1        1.0  0.2500001417089305  0.24999993413512406  0.24999981608099844  1.0000
  Y   Y2        1.0  0.7499998625989548  0.7500001191992465  0.7500000710594004  1.0000
  Rh  Rh1       1.0  0.999999991625125  0.9999999716304017  0.9999999894176373  1.0000
  F   F1        1.0  0.27411438774526564  0.27411447212591183  0.7258856309537417  1.0000
  F   F2        1.0  0.7258855518349494  0.7258855079203309  0.2741145162949143  1.0000
  F   F3        1.0  0.7258856567991996  0.27411439558444867  0.2741144603186954  1.0000
  F   F4        1.0  0.27411449101760216  0.7258855348149882  0.7258855362137225  1.0000
  F   F5        1.0  0.27411440835642514  0.7258856488586692  0.274114418368715  1.0000
  F   F6        1.0  0.7258855144044415  0.27411439501917123  0.7258856397433905  1.0000
