data_image0
_chemical_formula_structural       Y2RhF6
_chemical_formula_sum              "Y2 Rh1 F6"
_cell_length_a       5.181029040164713
_cell_length_b       5.181029054105126
_cell_length_c       5.1810290747258785
_cell_angle_alpha    60.00000435152756
_cell_angle_beta     60.000000572717056
_cell_angle_gamma    60.000001225578806

_space_group_name_H-M_alt    "P 1"
_space_group_IT_number       1

loop_
  _space_group_symop_operation_xyz
  'x, y, z'

loop_
  _atom_site_type_symbol
  _atom_site_label
  _atom_site_symmetry_multiplicity
  _atom_site_fract_x
  _atom_site_fract_y
  _atom_site_fract_z
  _atom_site_occupancy
  Y   Y1        1.0  0.2499997465134297  0.24999997248154382  0.24999988848479485  1.0000
  Y   Y2        1.0  0.749999764453242  0.7500001680183365  0.7499999783440783  1.0000
  Rh  Rh1       1.0  7.122988026929757e-08  0.9999999267190215  7.823028653150674e-08  1.0000
  F   F1        1.0  0.2740979092810864  0.27409785108567075  0.7259021124637854  1.0000
  F   F2        1.0  0.7259023175570805  0.7259019537400456  0.27409792712869047  1.0000
  F   F3        1.0  0.7259021943093502  0.27409785360979105  0.27409786138732545  1.0000
  F   F4        1.0  0.2740980172366749  0.7259023247125412  0.7259020319149401  1.0000
  F   F5        1.0  0.2740978250870825  0.7259020879900842  0.27409789508433957  1.0000
  F   F6        1.0  0.7259023361953653  0.2740977262912467  0.7259022381822171  1.0000
