data_image0
_chemical_formula_structural       Y2RuCl6
_chemical_formula_sum              "Y2 Ru1 Cl6"
_cell_length_a       6.838691287281931
_cell_length_b       6.838690867223206
_cell_length_c       6.838690709649276
_cell_angle_alpha    59.99999722445869
_cell_angle_beta     59.999998491288984
_cell_angle_gamma    59.99999946437475

_space_group_name_H-M_alt    "P 1"
_space_group_IT_number       1

loop_
  _space_group_symop_operation_xyz
  'x, y, z'

loop_
  _atom_site_type_symbol
  _atom_site_label
  _atom_site_symmetry_multiplicity
  _atom_site_fract_x
  _atom_site_fract_y
  _atom_site_fract_z
  _atom_site_occupancy
  Y   Y1        1.0  0.24999973749396195  0.25000020774445025  0.2500001858714845  1.0000
  Y   Y2        1.0  0.7500005004897738  0.7499994286994438  0.7499993015816462  1.0000
  Ru  Ru1       1.0  4.161203223552751e-09  1.7909053230057754e-08  6.646508611279847e-08  1.0000
  Cl  Cl1       1.0  0.24812178727866666  0.24812203915378067  0.7518780545853927  1.0000
  Cl  Cl2       1.0  0.7518781824001144  0.7518780020347327  0.2481220709234475  1.0000
  Cl  Cl3       1.0  0.7518780906601843  0.24812190503705503  0.24812197675810077  1.0000
  Cl  Cl4       1.0  0.24812181459872212  0.7518782382330693  0.7518781606275029  1.0000
  Cl  Cl5       1.0  0.24812173242688454  0.7518780639912568  0.2481220880839314  1.0000
  Cl  Cl6       1.0  0.7518781436157124  0.24812210614244798  0.7518781031196924  1.0000
