data_image0
_chemical_formula_structural       Y2RuI6
_chemical_formula_sum              "Y2 Ru1 I6"
_cell_length_a       7.696717024756608
_cell_length_b       7.696717079862142
_cell_length_c       7.6967171140999735
_cell_angle_alpha    59.99999981936108
_cell_angle_beta     60.00000015433733
_cell_angle_gamma    59.999999837043745

_space_group_name_H-M_alt    "P 1"
_space_group_IT_number       1

loop_
  _space_group_symop_operation_xyz
  'x, y, z'

loop_
  _atom_site_type_symbol
  _atom_site_label
  _atom_site_symmetry_multiplicity
  _atom_site_fract_x
  _atom_site_fract_y
  _atom_site_fract_z
  _atom_site_occupancy
  Y   Y1        1.0  0.25000000550341495  0.24999999155665928  0.24999998591675435  1.0000
  Y   Y2        1.0  0.7499999872930515  0.7499999858087711  0.7500000707298815  1.0000
  Ru  Ru1       1.0  0.9999999794359028  3.182512511078811e-09  0.9999999801071771  1.0000
  I   I1        1.0  0.2481647677231129  0.24816476116728983  0.7518352203778701  1.0000
  I   I2        1.0  0.751835279399559  0.7518352782571323  0.24816468972681138  1.0000
  I   I3        1.0  0.7518352333570928  0.24816477008496526  0.24816475056146461  1.0000
  I   I4        1.0  0.24816471458263437  0.7518352518356388  0.7518352958419121  1.0000
  I   I5        1.0  0.24816476510581642  0.7518352450951311  0.24816474370615976  1.0000
  I   I6        1.0  0.7518352690918605  0.24816471158396863  0.75183526620389  1.0000
