data_image0
_chemical_formula_structural       Y2RuSe6
_chemical_formula_sum              "Y2 Ru1 Se6"
_cell_length_a       6.690026538999416
_cell_length_b       6.690026692394459
_cell_length_c       6.690026547867093
_cell_angle_alpha    60.00000048977738
_cell_angle_beta     60.00000016026036
_cell_angle_gamma    60.00000109664438

_space_group_name_H-M_alt    "P 1"
_space_group_IT_number       1

loop_
  _space_group_symop_operation_xyz
  'x, y, z'

loop_
  _atom_site_type_symbol
  _atom_site_label
  _atom_site_symmetry_multiplicity
  _atom_site_fract_x
  _atom_site_fract_y
  _atom_site_fract_z
  _atom_site_occupancy
  Y   Y1        1.0  0.2500000123153401  0.2499998945786799  0.2500000444310524  1.0000
  Y   Y2        1.0  0.7499999763203602  0.7500000571993495  0.749999935020985  1.0000
  Ru  Ru1       1.0  3.1379071432585383e-09  1.647632256297402e-08  0.9999999767400237  1.0000
  Se  Se1       1.0  0.2559394896541419  0.2559394955378187  0.7440605091774659  1.0000
  Se  Se2       1.0  0.7440604813715045  0.7440605349604178  0.25593949652046516  1.0000
  Se  Se3       1.0  0.7440605186172302  0.2559394493860502  0.2559395505553768  1.0000
  Se  Se4       1.0  0.25593952830173433  0.7440604932384668  0.7440604686065669  1.0000
  Se  Se5       1.0  0.2559394920101443  0.7440605369653398  0.25593951400254716  1.0000
  Se  Se6       1.0  0.7440604992040393  0.25593952099343437  0.7440604992608567  1.0000
