data_image0
_chemical_formula_structural       Y2RuS6
_chemical_formula_sum              "Y2 Ru1 S6"
_cell_length_a       6.323855318228347
_cell_length_b       6.323855236087982
_cell_length_c       6.323855273893875
_cell_angle_alpha    60.000000542831735
_cell_angle_beta     60.00000138966372
_cell_angle_gamma    60.00000121525951

_space_group_name_H-M_alt    "P 1"
_space_group_IT_number       1

loop_
  _space_group_symop_operation_xyz
  'x, y, z'

loop_
  _atom_site_type_symbol
  _atom_site_label
  _atom_site_symmetry_multiplicity
  _atom_site_fract_x
  _atom_site_fract_y
  _atom_site_fract_z
  _atom_site_occupancy
  Y   Y1        1.0  0.24999998046140792  0.25000000604237965  0.2500000029110059  1.0000
  Y   Y2        1.0  0.7499999635550818  0.7499999406588975  0.7499999984301764  1.0000
  Ru  Ru1       1.0  3.3420800443314685e-08  0.9999999709494096  0.9999999551194209  1.0000
  S   S1        1.0  0.2561581644075597  0.2561581639356515  0.743841821493232  1.0000
  S   S2        1.0  0.7438418578649877  0.7438418602338683  0.25615812728682336  1.0000
  S   S3        1.0  0.7438418586732165  0.25615820100454856  0.25615817795015583  1.0000
  S   S4        1.0  0.2561581925011517  0.7438418076713235  0.7438418400288782  1.0000
  S   S5        1.0  0.2561581566077724  0.7438418599382737  0.25615821221032636  1.0000
  S   S6        1.0  0.7438417970162338  0.25615818940842433  0.7438418658347525  1.0000
