data_image0
_chemical_formula_structural       Y2RuO6
_chemical_formula_sum              "Y2 Ru1 O6"
_cell_length_a       5.341383429060036
_cell_length_b       5.341383385696079
_cell_length_c       5.341383435365105
_cell_angle_alpha    60.00000092105566
_cell_angle_beta     60.000001053385205
_cell_angle_gamma    60.00000150402511

_space_group_name_H-M_alt    "P 1"
_space_group_IT_number       1

loop_
  _space_group_symop_operation_xyz
  'x, y, z'

loop_
  _atom_site_type_symbol
  _atom_site_label
  _atom_site_symmetry_multiplicity
  _atom_site_fract_x
  _atom_site_fract_y
  _atom_site_fract_z
  _atom_site_occupancy
  Y   Y1        1.0  0.24999997619025932  0.25000007173142874  0.250000012685399  1.0000
  Y   Y2        1.0  0.7499999161508729  0.7499999216985181  0.7500001573148961  1.0000
  Ru  Ru1       1.0  1.0044690693660588e-08  2.292936055245043e-09  2.004162484830212e-08  1.0000
  O   O1        1.0  0.251877673406697  0.2518776103510278  0.7481223727680939  1.0000
  O   O2        1.0  0.7481223076993884  0.7481223762001118  0.25187760277084853  1.0000
  O   O3        1.0  0.7481223667389755  0.2518776502443015  0.25187757792046495  1.0000
  O   O4        1.0  0.2518776697871115  0.7481223775796809  0.748122347399882  1.0000
  O   O5        1.0  0.2518776068576104  0.7481222970494178  0.2518776349694925  1.0000
  O   O6        1.0  0.7481224775128561  0.25187767803704414  0.7481222740756831  1.0000
