data_image0
_chemical_formula_structural       Y2RuI6
_chemical_formula_sum              "Y2 Ru1 I6"
_cell_length_a       7.696938003357312
_cell_length_b       7.696937964341625
_cell_length_c       7.696937898421228
_cell_angle_alpha    59.99999990434779
_cell_angle_beta     60.00000004730213
_cell_angle_gamma    59.999999147334975

_space_group_name_H-M_alt    "P 1"
_space_group_IT_number       1

loop_
  _space_group_symop_operation_xyz
  'x, y, z'

loop_
  _atom_site_type_symbol
  _atom_site_label
  _atom_site_symmetry_multiplicity
  _atom_site_fract_x
  _atom_site_fract_y
  _atom_site_fract_z
  _atom_site_occupancy
  Y   Y1        1.0  0.24999989566247813  0.25000002904879215  0.2500000453627239  1.0000
  Y   Y2        1.0  0.7500000262034395  0.7499999471198465  0.7500001027535497  1.0000
  Ru  Ru1       1.0  0.9999999969995846  4.9988899098232676e-17  0.9999999924056818  1.0000
  I   I1        1.0  0.24816237457063145  0.2481624118285019  0.7518375925455144  1.0000
  I   I2        1.0  0.7518376179558252  0.7518376088940315  0.24816234335660406  1.0000
  I   I3        1.0  0.7518376468418035  0.2481624210941588  0.24816233045172378  1.0000
  I   I4        1.0  0.24816236120151908  0.751837625087743  0.7518376109466365  1.0000
  I   I5        1.0  0.24816241777812995  0.7518376010238456  0.2481623655065821  1.0000
  I   I6        1.0  0.7518376660348272  0.24816235286784444  0.7518376153332982  1.0000
