data_image0
_chemical_formula_structural       Y2RuF6
_chemical_formula_sum              "Y2 Ru1 F6"
_cell_length_a       5.402400640570126
_cell_length_b       5.402401194771019
_cell_length_c       5.402400790269892
_cell_angle_alpha    60.00000109287847
_cell_angle_beta     59.99999871181456
_cell_angle_gamma    59.99999922317589

_space_group_name_H-M_alt    "P 1"
_space_group_IT_number       1

loop_
  _space_group_symop_operation_xyz
  'x, y, z'

loop_
  _atom_site_type_symbol
  _atom_site_label
  _atom_site_symmetry_multiplicity
  _atom_site_fract_x
  _atom_site_fract_y
  _atom_site_fract_z
  _atom_site_occupancy
  Y   Y1        1.0  0.2499997237809245  0.25000002481051387  0.2500004176016253  1.0000
  Y   Y2        1.0  0.7499997992780256  0.7500002104538098  0.7500000748836847  1.0000
  Ru  Ru1       1.0  1.6343394105676733e-08  2.2670365285466554e-09  5.362976726254782e-08  1.0000
  F   F1        1.0  0.2774585482212058  0.2774583804126263  0.7225413968269344  1.0000
  F   F2        1.0  0.7225416682209329  0.7225414354496628  0.277458412614275  1.0000
  F   F3        1.0  0.7225415461609003  0.2774583535679966  0.27745848878494084  1.0000
  F   F4        1.0  0.27745853681135224  0.7225415869813834  0.7225413602172145  1.0000
  F   F5        1.0  0.2774584862058625  0.7225415706688977  0.27745836238191096  1.0000
  F   F6        1.0  0.7225417066138276  0.27745843789161734  0.7225413865847837  1.0000
