data_image0
_chemical_formula_structural       Y2RuBr6
_chemical_formula_sum              "Y2 Ru1 Br6"
_cell_length_a       7.112018842567207
_cell_length_b       7.1120188713760335
_cell_length_c       7.11201891309815
_cell_angle_alpha    60.00000053317584
_cell_angle_beta     60.000000210881346
_cell_angle_gamma    59.9999999013515

_space_group_name_H-M_alt    "P 1"
_space_group_IT_number       1

loop_
  _space_group_symop_operation_xyz
  'x, y, z'

loop_
  _atom_site_type_symbol
  _atom_site_label
  _atom_site_symmetry_multiplicity
  _atom_site_fract_x
  _atom_site_fract_y
  _atom_site_fract_z
  _atom_site_occupancy
  Y   Y1        1.0  0.2499999691715089  0.2500001258457637  0.2499998471014356  1.0000
  Y   Y2        1.0  0.7500000173533472  0.749999867802313  0.7500002629045392  1.0000
  Ru  Ru1       1.0  1.6404879116292708e-09  0.9999999707246796  0.9999999280471155  1.0000
  Br  Br1       1.0  0.2459636683256816  0.24596370642151283  0.7540363215747854  1.0000
  Br  Br2       1.0  0.754036361659063  0.7540362786161743  0.2459635952476277  1.0000
  Br  Br3       1.0  0.7540363078567647  0.24596378309025313  0.24596364307715352  1.0000
  Br  Br4       1.0  0.24596359924154576  0.7540363173266371  0.7540363970148677  1.0000
  Br  Br5       1.0  0.24596374929856987  0.7540363021181745  0.24596365794102412  1.0000
  Br  Br6       1.0  0.7540363263605779  0.24596364331172738  0.7540363486487329  1.0000
