data_image0
_chemical_formula_structural       Y2RuCl6
_chemical_formula_sum              "Y2 Ru1 Cl6"
_cell_length_a       6.838607216326018
_cell_length_b       6.838606950403454
_cell_length_c       6.838607183614218
_cell_angle_alpha    59.99999706389161
_cell_angle_beta     59.999997558029726
_cell_angle_gamma    59.99999782502915

_space_group_name_H-M_alt    "P 1"
_space_group_IT_number       1

loop_
  _space_group_symop_operation_xyz
  'x, y, z'

loop_
  _atom_site_type_symbol
  _atom_site_label
  _atom_site_symmetry_multiplicity
  _atom_site_fract_x
  _atom_site_fract_y
  _atom_site_fract_z
  _atom_site_occupancy
  Y   Y1        1.0  0.25000000831012464  0.24999938113712597  0.25000134514245587  1.0000
  Y   Y2        1.0  0.7500003715172725  0.7500001277590727  0.7499988282013486  1.0000
  Ru  Ru1       1.0  0.999999960260191  1.790927468311809e-08  9.45298161086944e-09  1.0000
  Cl  Cl1       1.0  0.24812541085622597  0.24812545852371043  0.7518743415591438  1.0000
  Cl  Cl2       1.0  0.7518744707835759  0.7518747040610174  0.24812572917533163  1.0000
  Cl  Cl3       1.0  0.7518744969562414  0.24812531094264556  0.24812551229492702  1.0000
  Cl  Cl4       1.0  0.2481254638383343  0.7518748623876496  0.7518743190053291  1.0000
  Cl  Cl5       1.0  0.24812507493582092  0.7518747567254704  0.24812558239308055  1.0000
  Cl  Cl6       1.0  0.7518747334165491  0.248125382577202  0.751874339217521  1.0000
