data_image0
_chemical_formula_structural       Y2SbI6
_chemical_formula_sum              "Y2 Sb1 I6"
_cell_length_a       8.032546584417107
_cell_length_b       8.03254674614995
_cell_length_c       8.03254632968381
_cell_angle_alpha    60.00000217115508
_cell_angle_beta     60.00000107229519
_cell_angle_gamma    60.00000139279911

_space_group_name_H-M_alt    "P 1"
_space_group_IT_number       1

loop_
  _space_group_symop_operation_xyz
  'x, y, z'

loop_
  _atom_site_type_symbol
  _atom_site_label
  _atom_site_symmetry_multiplicity
  _atom_site_fract_x
  _atom_site_fract_y
  _atom_site_fract_z
  _atom_site_occupancy
  Y   Y1        1.0  0.25000004865624326  0.24999992121272555  0.2500000128784519  1.0000
  Y   Y2        1.0  0.749999973313274  0.7500001737899914  0.7499999348264006  1.0000
  Sb  Sb1       1.0  0.9999999946858937  0.9999999771290808  0.9999999829691316  1.0000
  I   I1        1.0  0.2623878238622532  0.262387662737022  0.7376122713844794  1.0000
  I   I2        1.0  0.737612189352582  0.7376123636529381  0.2623877299433153  1.0000
  I   I3        1.0  0.7376122873082425  0.26238768177383465  0.2623877511729537  1.0000
  I   I4        1.0  0.2623876956911622  0.7376122455088098  0.737612296142185  1.0000
  I   I5        1.0  0.26238770448684234  0.7376122705387526  0.2623877472657638  1.0000
  I   I6        1.0  0.7376122902444607  0.2623876948620901  0.7376122726344563  1.0000
