data_image0
_chemical_formula_structural       Y2SbO6
_chemical_formula_sum              "Y2 Sb1 O6"
_cell_length_a       5.3733826338842094
_cell_length_b       5.373382883750066
_cell_length_c       5.3733826067195825
_cell_angle_alpha    59.99999952892393
_cell_angle_beta     60.00000029152996
_cell_angle_gamma    59.99999942645677

_space_group_name_H-M_alt    "P 1"
_space_group_IT_number       1

loop_
  _space_group_symop_operation_xyz
  'x, y, z'

loop_
  _atom_site_type_symbol
  _atom_site_label
  _atom_site_symmetry_multiplicity
  _atom_site_fract_x
  _atom_site_fract_y
  _atom_site_fract_z
  _atom_site_occupancy
  Y   Y1        1.0  0.2499998943987676  0.2499999491717401  0.25000009418331176  1.0000
  Y   Y2        1.0  0.7500000051627724  0.7500000549297763  0.7499999452794397  1.0000
  Sb  Sb1       1.0  2.804403566073146e-08  3.190993290412413e-08  0.9999999216363622  1.0000
  O   O1        1.0  0.25641864104402406  0.25641856692530896  0.743581405676007  1.0000
  O   O2        1.0  0.7435813592563624  0.7435814508518911  0.25641858030152975  1.0000
  O   O3        1.0  0.7435814872096381  0.2564186076943333  0.2564184897291008  1.0000
  O   O4        1.0  0.25641857389010253  0.7435814146414259  0.7435815324274085  1.0000
  O   O5        1.0  0.25641851269543786  0.7435814223318256  0.25641854072511916  1.0000
  O   O6        1.0  0.7435814776424404  0.2564185544183193  0.7435814614420743  1.0000
