data_image0
_chemical_formula_structural       Y2SbF6
_chemical_formula_sum              "Y2 Sb1 F6"
_cell_length_a       7.738177350142403
_cell_length_b       6.191409583783602
_cell_length_c       6.944434423909039
_cell_angle_alpha    74.54208869750936
_cell_angle_beta     53.28215819818118
_cell_angle_gamma    53.00681922203094

_space_group_name_H-M_alt    "P 1"
_space_group_IT_number       1

loop_
  _space_group_symop_operation_xyz
  'x, y, z'

loop_
  _atom_site_type_symbol
  _atom_site_label
  _atom_site_symmetry_multiplicity
  _atom_site_fract_x
  _atom_site_fract_y
  _atom_site_fract_z
  _atom_site_occupancy
  Y   Y1        1.0  0.43659673125132814  0.3790726019524011  0.035119452584144076  1.0000
  Y   Y2        1.0  0.9295159940934574  0.6421239923621411  0.8191244141087628  1.0000
  Sb  Sb1       1.0  0.06523022725447748  0.12408453290706452  0.2134446401258682  1.0000
  F   F1        1.0  0.11566002804357434  0.19683887560384264  0.8797414722890373  1.0000
  F   F2        1.0  0.6164625339307302  0.9661188758341213  0.1397371923287961  1.0000
  F   F3        1.0  0.6544045210716138  0.5555602352597903  0.9036046417000589  1.0000
  F   F4        1.0  0.21265026279640786  0.5639110614415916  0.8781953582242377  1.0000
  F   F5        1.0  0.19630072892203637  0.5138242916106569  0.42484687177475633  1.0000
  F   F6        1.0  0.7731722922178355  0.05846062969682636  0.7061863253345448  1.0000
