data_image0
_chemical_formula_structural       Y2SbI6
_chemical_formula_sum              "Y2 Sb1 I6"
_cell_length_a       8.032429030785124
_cell_length_b       8.032428980879867
_cell_length_c       8.03242901144347
_cell_angle_alpha    60.000000652482875
_cell_angle_beta     59.99999995470941
_cell_angle_gamma    60.00000049790707

_space_group_name_H-M_alt    "P 1"
_space_group_IT_number       1

loop_
  _space_group_symop_operation_xyz
  'x, y, z'

loop_
  _atom_site_type_symbol
  _atom_site_label
  _atom_site_symmetry_multiplicity
  _atom_site_fract_x
  _atom_site_fract_y
  _atom_site_fract_z
  _atom_site_occupancy
  Y   Y1        1.0  0.24999999465926584  0.2500000462259539  0.2500000348575431  1.0000
  Y   Y2        1.0  0.7500000086230141  0.7499999267375662  0.7500000226817345  1.0000
  Sb  Sb1       1.0  0.9999999797721593  3.0495006421193166e-08  1.4785672160727899e-08  1.0000
  I   I1        1.0  0.26238621113335453  0.2623862701373234  0.7376137592356986  1.0000
  I   I2        1.0  0.7376137555998027  0.7376137348459526  0.26238624703526525  1.0000
  I   I3        1.0  0.7376137563849083  0.2623862252298589  0.26238621242936466  1.0000
  I   I4        1.0  0.262386284694678  0.737613750783161  0.7376137300700495  1.0000
  I   I5        1.0  0.2623862811897416  0.737613737217074  0.2623862271564406  1.0000
  I   I6        1.0  0.7376137283210593  0.2623862860632059  0.7376137523120597  1.0000
