data_image0
_chemical_formula_structural       Y2SbCl6
_chemical_formula_sum              "Y2 Sb1 Cl6"
_cell_length_a       7.214777181677793
_cell_length_b       7.214777689514581
_cell_length_c       7.2147766148368015
_cell_angle_alpha    60.00000146985809
_cell_angle_beta     59.99999969849098
_cell_angle_gamma    60.00000029917058

_space_group_name_H-M_alt    "P 1"
_space_group_IT_number       1

loop_
  _space_group_symop_operation_xyz
  'x, y, z'

loop_
  _atom_site_type_symbol
  _atom_site_label
  _atom_site_symmetry_multiplicity
  _atom_site_fract_x
  _atom_site_fract_y
  _atom_site_fract_z
  _atom_site_occupancy
  Y   Y1        1.0  0.24999981630506724  0.25000030939889334  0.24999987698162665  1.0000
  Y   Y2        1.0  0.7500006810555688  0.7499995124396545  0.7499998280925858  1.0000
  Sb  Sb1       1.0  0.9999998146814509  2.3426194273861584e-07  3.40057951916469e-07  1.0000
  Cl  Cl1       1.0  0.26295825641135095  0.26295864249228956  0.7370415926842276  1.0000
  Cl  Cl2       1.0  0.7370414247087711  0.7370413474037512  0.2629586873555269  1.0000
  Cl  Cl3       1.0  0.7370415950116275  0.26295854409615366  0.26295841658173635  1.0000
  Cl  Cl4       1.0  0.26295855791045564  0.7370412115379397  0.7370413718420906  1.0000
  Cl  Cl5       1.0  0.2629584187301068  0.7370415746191991  0.2629584306372721  1.0000
  Cl  Cl6       1.0  0.7370414227721304  0.262958649538794  0.7370414691225917  1.0000
