data_image0
_chemical_formula_structural       Y2SbSe6
_chemical_formula_sum              "Y2 Sb1 Se6"
_cell_length_a       6.8995783712526055
_cell_length_b       6.89957830036586
_cell_length_c       6.899578398494808
_cell_angle_alpha    60.000000269793155
_cell_angle_beta     60.00000027266116
_cell_angle_gamma    60.00000047786335

_space_group_name_H-M_alt    "P 1"
_space_group_IT_number       1

loop_
  _space_group_symop_operation_xyz
  'x, y, z'

loop_
  _atom_site_type_symbol
  _atom_site_label
  _atom_site_symmetry_multiplicity
  _atom_site_fract_x
  _atom_site_fract_y
  _atom_site_fract_z
  _atom_site_occupancy
  Y   Y1        1.0  0.24999987583207142  0.2500000957281586  0.25000010200201167  1.0000
  Y   Y2        1.0  0.750000030446622  0.7499999268389631  0.7499999426537013  1.0000
  Sb  Sb1       1.0  5.696546046530217e-09  2.3076313958507143e-08  2.9094487770078097e-08  1.0000
  Se  Se1       1.0  0.262970227410562  0.2629702868647444  0.7370297323088982  1.0000
  Se  Se2       1.0  0.7370297870940516  0.7370296771240433  0.26297030781411657  1.0000
  Se  Se3       1.0  0.7370297189915062  0.2629703285762777  0.262970208831689  1.0000
  Se  Se4       1.0  0.262970290643149  0.7370297152920569  0.7370297459575226  1.0000
  Se  Se5       1.0  0.2629702607768557  0.7370296836346004  0.262970286256393  1.0000
  Se  Se6       1.0  0.7370297957703297  0.26297026970358073  0.7370296439619846  1.0000
