data_image0
_chemical_formula_structural       Y2SbCl6
_chemical_formula_sum              "Y2 Sb1 Cl6"
_cell_length_a       7.2151236427594725
_cell_length_b       7.215123263850458
_cell_length_c       7.215123771061131
_cell_angle_alpha    59.999994951539655
_cell_angle_beta     60.00000151491312
_cell_angle_gamma    59.999996313651486

_space_group_name_H-M_alt    "P 1"
_space_group_IT_number       1

loop_
  _space_group_symop_operation_xyz
  'x, y, z'

loop_
  _atom_site_type_symbol
  _atom_site_label
  _atom_site_symmetry_multiplicity
  _atom_site_fract_x
  _atom_site_fract_y
  _atom_site_fract_z
  _atom_site_occupancy
  Y   Y1        1.0  0.25000029293477527  0.24999983999278128  0.2500000632664221  1.0000
  Y   Y2        1.0  0.7499999951120832  0.7499996744480593  0.7500002397935953  1.0000
  Sb  Sb1       1.0  2.1786659864186486e-07  0.9999997929087594  0.9999999003658512  1.0000
  Cl  Cl1       1.0  0.2629282351427768  0.26292835195939457  0.7370716565609051  1.0000
  Cl  Cl2       1.0  0.7370715995304066  0.7370718024273495  0.26292827185952294  1.0000
  Cl  Cl3       1.0  0.7370716419421873  0.26292848893196585  0.2629280602821911  1.0000
  Cl  Cl4       1.0  0.26292814888804045  0.7370717825801487  0.7370719576209886  1.0000
  Cl  Cl5       1.0  0.26292802874046484  0.7370720216555157  0.2629280208585166  1.0000
  Cl  Cl6       1.0  0.7370718183613019  0.2629282922933339  0.7370718118647206  1.0000
