data_image0
_chemical_formula_structural       Y2SbBr6
_chemical_formula_sum              "Y2 Sb1 Br6"
_cell_length_a       7.466714729979128
_cell_length_b       7.466714936582282
_cell_length_c       7.46671435017185
_cell_angle_alpha    60.00000286544205
_cell_angle_beta     60.000002244060184
_cell_angle_gamma    60.0000018180043

_space_group_name_H-M_alt    "P 1"
_space_group_IT_number       1

loop_
  _space_group_symop_operation_xyz
  'x, y, z'

loop_
  _atom_site_type_symbol
  _atom_site_label
  _atom_site_symmetry_multiplicity
  _atom_site_fract_x
  _atom_site_fract_y
  _atom_site_fract_z
  _atom_site_occupancy
  Y   Y1        1.0  0.24999990051755266  0.24999987747843966  0.25000019626137315  1.0000
  Y   Y2        1.0  0.7500001061123145  0.7499999080011226  0.7500000893474097  1.0000
  Sb  Sb1       1.0  0.9999999474818453  5.084845263154042e-08  8.654858924743298e-08  1.0000
  Br  Br1       1.0  0.26236845282513555  0.26236851784930526  0.7376314640514888  1.0000
  Br  Br2       1.0  0.737631492613408  0.737631530073882  0.2623685066467977  1.0000
  Br  Br3       1.0  0.7376315644277368  0.26236855623472666  0.2623684072929535  1.0000
  Br  Br4       1.0  0.262368504634113  0.7376314966092777  0.7376313464556755  1.0000
  Br  Br5       1.0  0.26236851963156493  0.7376315224208045  0.26236850580973353  1.0000
  Br  Br6       1.0  0.737631481822726  0.26236856158838084  0.7376314054449091  1.0000
