data_image0
_chemical_formula_structural       Y2SBr6
_chemical_formula_sum              "Y2 S1 Br6"
_cell_length_a       7.303479811813569
_cell_length_b       7.3034797157096465
_cell_length_c       7.303479858188577
_cell_angle_alpha    60.000001340420006
_cell_angle_beta     60.00000424957609
_cell_angle_gamma    60.00000189139531

_space_group_name_H-M_alt    "P 1"
_space_group_IT_number       1

loop_
  _space_group_symop_operation_xyz
  'x, y, z'

loop_
  _atom_site_type_symbol
  _atom_site_label
  _atom_site_symmetry_multiplicity
  _atom_site_fract_x
  _atom_site_fract_y
  _atom_site_fract_z
  _atom_site_occupancy
  Y   Y1        1.0  0.2499999061402305  0.2500001372897506  0.25000003029384354  1.0000
  Y   Y2        1.0  0.7499998644920478  0.7499998266195171  0.7499998339855242  1.0000
  S   S1        1.0  3.227544140706222e-08  0.9999999932922672  2.28156150568175e-08  1.0000
  Br  Br1       1.0  0.2573862428267348  0.2573862651523593  0.742613776595725  1.0000
  Br  Br2       1.0  0.7426138135879765  0.7426137188801131  0.2573863304326165  1.0000
  Br  Br3       1.0  0.7426136921970843  0.25738620910528776  0.25738630609408325  1.0000
  Br  Br4       1.0  0.2573863903607646  0.7426137581578512  0.7426137524326266  1.0000
  Br  Br5       1.0  0.2573862054276076  0.7426137352886616  0.2573862622538729  1.0000
  Br  Br6       1.0  0.7426138593059463  0.257386337621277  0.742613707177645  1.0000
