data_image0
_chemical_formula_structural       Y2SbS6
_chemical_formula_sum              "Y2 Sb1 S6"
_cell_length_a       6.587634979676048
_cell_length_b       6.5876349302804815
_cell_length_c       6.5876350076805
_cell_angle_alpha    59.99999921895272
_cell_angle_beta     59.999998747353345
_cell_angle_gamma    59.99999800882395

_space_group_name_H-M_alt    "P 1"
_space_group_IT_number       1

loop_
  _space_group_symop_operation_xyz
  'x, y, z'

loop_
  _atom_site_type_symbol
  _atom_site_label
  _atom_site_symmetry_multiplicity
  _atom_site_fract_x
  _atom_site_fract_y
  _atom_site_fract_z
  _atom_site_occupancy
  Y   Y1        1.0  0.24999990233945948  0.25000003499952006  0.25000011898490226  1.0000
  Y   Y2        1.0  0.7499999204930894  0.7500000324914265  0.7499999191160166  1.0000
  Sb  Sb1       1.0  0.9999999782217485  3.904230139952291e-08  0.9999999549360842  1.0000
  S   S1        1.0  0.2609974041296566  0.26099737340975127  0.7390026480828537  1.0000
  S   S2        1.0  0.7390026655876987  0.7390026159965897  0.2609974300935901  1.0000
  S   S3        1.0  0.7390026094749331  0.2609973442884324  0.260997370139359  1.0000
  S   S4        1.0  0.26099737208752105  0.7390026413995956  0.739002641642029  1.0000
  S   S5        1.0  0.26099739351728163  0.7390025931791478  0.26099731528666076  1.0000
  S   S6        1.0  0.7390027625505502  0.26099731070596105  0.7390026167475965  1.0000
