data_image0
_chemical_formula_structural       Y2SbTe6
_chemical_formula_sum              "Y2 Sb1 Te6"
_cell_length_a       7.422955028106131
_cell_length_b       7.422955173541449
_cell_length_c       7.4229550818505095
_cell_angle_alpha    60.000000218037975
_cell_angle_beta     59.99999964650484
_cell_angle_gamma    60.00000028633176

_space_group_name_H-M_alt    "P 1"
_space_group_IT_number       1

loop_
  _space_group_symop_operation_xyz
  'x, y, z'

loop_
  _atom_site_type_symbol
  _atom_site_label
  _atom_site_symmetry_multiplicity
  _atom_site_fract_x
  _atom_site_fract_y
  _atom_site_fract_z
  _atom_site_occupancy
  Y   Y1        1.0  0.24999996429685145  0.24999998609558027  0.2499999931187392  1.0000
  Y   Y2        1.0  0.7499999928871471  0.7499999896356465  0.7499999770005696  1.0000
  Sb  Sb1       1.0  2.352243367446149e-08  0.9999999901003453  2.9562264498225115e-08  1.0000
  Te  Te1       1.0  0.26741546209573525  0.2674154706867266  0.7325845408269894  1.0000
  Te  Te2       1.0  0.732584555912254  0.732584551242888  0.2674154498756106  1.0000
  Te  Te3       1.0  0.7325845557707452  0.26741544422678565  0.2674154524245765  1.0000
  Te  Te4       1.0  0.26741548129784887  0.7325845298544985  0.7325845553662311  1.0000
  Te  Te5       1.0  0.2674154299305174  0.7325845735575903  0.2674154652289448  1.0000
  Te  Te6       1.0  0.7325845338046819  0.2674154665213911  0.7325845381466773  1.0000
