data_image0
_chemical_formula_structural       Y2SbF6
_chemical_formula_sum              "Y2 Sb1 F6"
_cell_length_a       4.784519225669255
_cell_length_b       4.784526155143994
_cell_length_c       4.7845153625533605
_cell_angle_alpha    59.99994708109671
_cell_angle_beta     59.99998098384306
_cell_angle_gamma    59.999856322086245

_space_group_name_H-M_alt    "P 1"
_space_group_IT_number       1

loop_
  _space_group_symop_operation_xyz
  'x, y, z'

loop_
  _atom_site_type_symbol
  _atom_site_label
  _atom_site_symmetry_multiplicity
  _atom_site_fract_x
  _atom_site_fract_y
  _atom_site_fract_z
  _atom_site_occupancy
  Y   Y1        1.0  0.2499984397986414  0.24999915495191755  0.2500026661955224  1.0000
  Y   Y2        1.0  0.7500015943711356  0.7499970373616133  0.7500024664296175  1.0000
  Sb  Sb1       1.0  3.7332367073206866e-06  0.9999983284439561  0.9999963962766214  1.0000
  F   F1        1.0  0.2833936091994736  0.28339956812626294  0.7166026258774937  1.0000
  F   F2        1.0  0.7166055590145681  0.7166049128418919  0.28339828959215674  1.0000
  F   F3        1.0  0.716605064217279  0.2833942692226663  0.2833938798042713  1.0000
  F   F4        1.0  0.2833967215334445  0.7166043574759201  0.7165996897012518  1.0000
  F   F5        1.0  0.2833941703206618  0.7166060864653677  0.2833969772056591  1.0000
  F   F6        1.0  0.7166010280101082  0.2833966128837627  0.7166068829907315  1.0000
