data_image0
_chemical_formula_structural       Y2SbBr6
_chemical_formula_sum              "Y2 Sb1 Br6"
_cell_length_a       7.466141408059435
_cell_length_b       7.466140964167708
_cell_length_c       7.466141470213831
_cell_angle_alpha    59.99999966961385
_cell_angle_beta     60.00000131623637
_cell_angle_gamma    60.00000234856539

_space_group_name_H-M_alt    "P 1"
_space_group_IT_number       1

loop_
  _space_group_symop_operation_xyz
  'x, y, z'

loop_
  _atom_site_type_symbol
  _atom_site_label
  _atom_site_symmetry_multiplicity
  _atom_site_fract_x
  _atom_site_fract_y
  _atom_site_fract_z
  _atom_site_occupancy
  Y   Y1        1.0  0.24999994337668324  0.25000034654172965  0.25000002170149666  1.0000
  Y   Y2        1.0  0.7500001624153925  0.7499998618188556  0.750000274903564  1.0000
  Sb  Sb1       1.0  0.9999999430417941  1.3123191242688946e-08  2.080913163561283e-07  1.0000
  Br  Br1       1.0  0.26232603065998505  0.26232612444758935  0.7376738824847443  1.0000
  Br  Br2       1.0  0.7376739931365299  0.7376738148875798  0.2623260043217727  1.0000
  Br  Br3       1.0  0.7376737855638633  0.2623261646352753  0.26232594482205457  1.0000
  Br  Br4       1.0  0.26232612331645117  0.7376737993058693  0.7376738411471624  1.0000
  Br  Br5       1.0  0.26232610786215066  0.7376738459963261  0.26232602718387626  1.0000
  Br  Br6       1.0  0.7376739016881435  0.26232602936328725  0.737673790243754  1.0000
