data_image0
_chemical_formula_structural       Y2SCl6
_chemical_formula_sum              "Y2 S1 Cl6"
_cell_length_a       7.038059455107735
_cell_length_b       7.038058848516739
_cell_length_c       7.038058683331126
_cell_angle_alpha    60.0000027356129
_cell_angle_beta     60.00000397441353
_cell_angle_gamma    60.000002447921396

_space_group_name_H-M_alt    "P 1"
_space_group_IT_number       1

loop_
  _space_group_symop_operation_xyz
  'x, y, z'

loop_
  _atom_site_type_symbol
  _atom_site_label
  _atom_site_symmetry_multiplicity
  _atom_site_fract_x
  _atom_site_fract_y
  _atom_site_fract_z
  _atom_site_occupancy
  Y   Y1        1.0  0.250000401107726  0.24999998636280163  0.24999974076387382  1.0000
  Y   Y2        1.0  0.7499999201768642  0.7500003976122744  0.7499995195683675  1.0000
  S   S1        1.0  0.9999999627796959  0.9999999443144257  9.3340867812609e-08  1.0000
  Cl  Cl1       1.0  0.2617835238054822  0.26178328387873817  0.7382167238608514  1.0000
  Cl  Cl2       1.0  0.738216345893496  0.7382166337296551  0.261783616357385  1.0000
  Cl  Cl3       1.0  0.7382164299632962  0.26178332017862305  0.26178363116818154  1.0000
  Cl  Cl4       1.0  0.26178360971804004  0.7382165452245452  0.7382165336520872  1.0000
  Cl  Cl5       1.0  0.2617835552934987  0.7382163786518502  0.2617835351256808  1.0000
  Cl  Cl6       1.0  0.7382163152841055  0.2617835215547955  0.738216541972463  1.0000
