data_image0
_chemical_formula_structural       Y2SeCl6
_chemical_formula_sum              "Y2 Se1 Cl6"
_cell_length_a       7.078948033313834
_cell_length_b       7.078947725744426
_cell_length_c       7.078947443783589
_cell_angle_alpha    60.000000251805716
_cell_angle_beta     59.99999736247976
_cell_angle_gamma    59.999999307656104

_space_group_name_H-M_alt    "P 1"
_space_group_IT_number       1

loop_
  _space_group_symop_operation_xyz
  'x, y, z'

loop_
  _atom_site_type_symbol
  _atom_site_label
  _atom_site_symmetry_multiplicity
  _atom_site_fract_x
  _atom_site_fract_y
  _atom_site_fract_z
  _atom_site_occupancy
  Y   Y1        1.0  0.2499998628434326  0.2500003413439823  0.24999972863418288  1.0000
  Y   Y2        1.0  0.7500001206247239  0.7499999513558337  0.7500001808773864  1.0000
  Se  Se1       1.0  5.298918954968415e-08  0.9999999584770538  1.8281746140929302e-08  1.0000
  Cl  Cl1       1.0  0.25567257461032383  0.25567245095627394  0.7443274784413737  1.0000
  Cl  Cl2       1.0  0.744327506041554  0.7443275355118107  0.25567245083583573  1.0000
  Cl  Cl3       1.0  0.7443276723753655  0.25567257019147677  0.2556722796171013  1.0000
  Cl  Cl4       1.0  0.25567226527874554  0.7443273020885044  0.7443278022679196  1.0000
  Cl  Cl5       1.0  0.25567246321703613  0.7443274485560933  0.2556725076092043  1.0000
  Cl  Cl6       1.0  0.7443275351863528  0.25567240296241456  0.7443275599324697  1.0000
