data_image0
_chemical_formula_structural       Y2SeF6
_chemical_formula_sum              "Y2 Se1 F6"
_cell_length_a       5.52568052430404
_cell_length_b       5.525679653489883
_cell_length_c       5.5256772354421875
_cell_angle_alpha    59.99999515530937
_cell_angle_beta     59.99999962569983
_cell_angle_gamma    60.00001505209987

_space_group_name_H-M_alt    "P 1"
_space_group_IT_number       1

loop_
  _space_group_symop_operation_xyz
  'x, y, z'

loop_
  _atom_site_type_symbol
  _atom_site_label
  _atom_site_symmetry_multiplicity
  _atom_site_fract_x
  _atom_site_fract_y
  _atom_site_fract_z
  _atom_site_occupancy
  Y   Y1        1.0  0.2500030291018877  0.2500019939712821  0.2499964643548094  1.0000
  Y   Y2        1.0  0.7499984433986525  0.7499995342281501  0.7500029862084514  1.0000
  Se  Se1       1.0  0.9999999011540942  0.9999998138173377  5.926661189379667e-08  1.0000
  F   F1        1.0  0.28509398985663054  0.2850932154321395  0.714907089700065  1.0000
  F   F2        1.0  0.7149061151455814  0.7149065661966494  0.2850921154041554  1.0000
  F   F3        1.0  0.7149047934686447  0.28509508871033484  0.28509230301986754  1.0000
  F   F4        1.0  0.28509445841151554  0.7149045377659509  0.7149080957300251  1.0000
  F   F5        1.0  0.28509568530001134  0.7149052553911481  0.2850919607691267  1.0000
  F   F6        1.0  0.7149035922939886  0.2850941184086515  0.714908803014998  1.0000
