data_image0
_chemical_formula_structural       Y2SeI6
_chemical_formula_sum              "Y2 Se1 I6"
_cell_length_a       7.898914733246664
_cell_length_b       7.898914764021272
_cell_length_c       7.8989147600269884
_cell_angle_alpha    59.99999977535273
_cell_angle_beta     59.999999149056315
_cell_angle_gamma    60.000000375211606

_space_group_name_H-M_alt    "P 1"
_space_group_IT_number       1

loop_
  _space_group_symop_operation_xyz
  'x, y, z'

loop_
  _atom_site_type_symbol
  _atom_site_label
  _atom_site_symmetry_multiplicity
  _atom_site_fract_x
  _atom_site_fract_y
  _atom_site_fract_z
  _atom_site_occupancy
  Y   Y1        1.0  0.2500000063173702  0.2500000161548123  0.25000001982621567  1.0000
  Y   Y2        1.0  0.7499999807971633  0.7500000050497939  0.7500000268356339  1.0000
  Se  Se1       1.0  1.7126605071592295e-09  1.2404183690199207e-08  0.9999999942075746  1.0000
  I   I1        1.0  0.26601299523963035  0.26601299563769576  0.7339870038534004  1.0000
  I   I2        1.0  0.7339869881987692  0.7339869883543595  0.26601299109098014  1.0000
  I   I3        1.0  0.7339869955806304  0.2660130218795068  0.2660130130100705  1.0000
  I   I4        1.0  0.2660130310189887  0.7339869729662095  0.7339869891087802  1.0000
  I   I5        1.0  0.2660130155074751  0.7339869729402769  0.2660130014235545  1.0000
  I   I6        1.0  0.73398698632942  0.2660130172538703  0.7339869546346015  1.0000
