data_image0
_chemical_formula_structural       Y2SeS6
_chemical_formula_sum              "Y2 Se1 S6"
_cell_length_a       6.346149199715665
_cell_length_b       6.346149142288353
_cell_length_c       6.346149237933935
_cell_angle_alpha    59.999999118640226
_cell_angle_beta     59.999998144847375
_cell_angle_gamma    60.00000009646114

_space_group_name_H-M_alt    "P 1"
_space_group_IT_number       1

loop_
  _space_group_symop_operation_xyz
  'x, y, z'

loop_
  _atom_site_type_symbol
  _atom_site_label
  _atom_site_symmetry_multiplicity
  _atom_site_fract_x
  _atom_site_fract_y
  _atom_site_fract_z
  _atom_site_occupancy
  Y   Y1        1.0  0.25000015946797266  0.25000040468447765  0.24999975520434214  1.0000
  Y   Y2        1.0  0.7499998491848725  0.7499997010099057  0.7500004628050226  1.0000
  Se  Se1       1.0  0.9999999777052175  5.596717083893382e-08  9.951704173800365e-09  1.0000
  S   S1        1.0  0.2573745513822844  0.2573745919352383  0.7426253916103049  1.0000
  S   S2        1.0  0.742625509046813  0.7426253748061684  0.25737448550229414  1.0000
  S   S3        1.0  0.742625374969719  0.2573746895841847  0.2573744157686346  1.0000
  S   S4        1.0  0.2573746333363237  0.7426252752273191  0.7426255135825834  1.0000
  S   S5        1.0  0.25737467771162786  0.742625264647172  0.25737443583813413  1.0000
  S   S6        1.0  0.7426252832141493  0.2573746403373552  0.7426255234803251  1.0000
