data_image0
_chemical_formula_structural       Y2SeBr6
_chemical_formula_sum              "Y2 Se1 Br6"
_cell_length_a       7.408112651490287
_cell_length_b       7.4081128775292395
_cell_length_c       7.408112616058853
_cell_angle_alpha    60.0000008123966
_cell_angle_beta     60.000000359308885
_cell_angle_gamma    59.99999664525403

_space_group_name_H-M_alt    "P 1"
_space_group_IT_number       1

loop_
  _space_group_symop_operation_xyz
  'x, y, z'

loop_
  _atom_site_type_symbol
  _atom_site_label
  _atom_site_symmetry_multiplicity
  _atom_site_fract_x
  _atom_site_fract_y
  _atom_site_fract_z
  _atom_site_occupancy
  Y   Y1        1.0  0.24999973010921048  0.2500000344166014  0.25000009071458584  1.0000
  Y   Y2        1.0  0.7500000342609774  0.7500000404263326  0.7500001380644047  1.0000
  Se  Se1       1.0  1.3304314631563474e-08  0.9999999834675181  0.9999999989143408  1.0000
  Br  Br1       1.0  0.2569201619573994  0.256920129922791  0.7430798880395589  1.0000
  Br  Br2       1.0  0.7430799073529506  0.7430798110070305  0.2569200689436423  1.0000
  Br  Br3       1.0  0.7430800337298681  0.256920100634376  0.25692000326905073  1.0000
  Br  Br4       1.0  0.25691999591874454  0.7430799312240944  0.743079926730823  1.0000
  Br  Br5       1.0  0.2569200995037971  0.7430799401638617  0.25692004182422784  1.0000
  Br  Br6       1.0  0.7430800242501856  0.2569200338309199  0.7430798349581468  1.0000
