data_image0
_chemical_formula_structural       Y2SeO6
_chemical_formula_sum              "Y2 Se1 O6"
_cell_length_a       5.248992619403041
_cell_length_b       5.248992707639611
_cell_length_c       5.248992596937803
_cell_angle_alpha    59.99999930542509
_cell_angle_beta     59.999999494631055
_cell_angle_gamma    59.99999917028568

_space_group_name_H-M_alt    "P 1"
_space_group_IT_number       1

loop_
  _space_group_symop_operation_xyz
  'x, y, z'

loop_
  _atom_site_type_symbol
  _atom_site_label
  _atom_site_symmetry_multiplicity
  _atom_site_fract_x
  _atom_site_fract_y
  _atom_site_fract_z
  _atom_site_occupancy
  Y   Y1        1.0  0.24999999729631409  0.25000003072242566  0.2500000491090159  1.0000
  Y   Y2        1.0  0.7499999654259644  0.749999980169116  0.7500000584320382  1.0000
  Se  Se1       1.0  2.4976134012383447e-08  0.9999999976667047  0.999999994393963  1.0000
  O   O1        1.0  0.24323991917301155  0.24323984529716552  0.7567601184099656  1.0000
  O   O2        1.0  0.7567601055454457  0.756760144594722  0.24323982955852055  1.0000
  O   O3        1.0  0.7567601018470299  0.24323990778416205  0.2432398636156706  1.0000
  O   O4        1.0  0.24323986825256894  0.7567601007740864  0.7567601061393193  1.0000
  O   O5        1.0  0.24323988498297947  0.7567600936236534  0.24323993148425957  1.0000
  O   O6        1.0  0.7567601174700737  0.24323991026800415  0.7567600530042105  1.0000
