data_image0
_chemical_formula_structural       Y2SF6
_chemical_formula_sum              "Y2 S1 F6"
_cell_length_a       5.148142632939836
_cell_length_b       5.148142509823229
_cell_length_c       5.148142566419166
_cell_angle_alpha    60.00000008581458
_cell_angle_beta     59.99999973051549
_cell_angle_gamma    59.99999846362795

_space_group_name_H-M_alt    "P 1"
_space_group_IT_number       1

loop_
  _space_group_symop_operation_xyz
  'x, y, z'

loop_
  _atom_site_type_symbol
  _atom_site_label
  _atom_site_symmetry_multiplicity
  _atom_site_fract_x
  _atom_site_fract_y
  _atom_site_fract_z
  _atom_site_occupancy
  Y   Y1        1.0  0.24999970423826245  0.2500001593009464  0.2499999350529679  1.0000
  Y   Y2        1.0  0.7499999433124142  0.7500001662533787  0.7499998487067261  1.0000
  S   S1        1.0  4.404257022367456e-08  4.2822063286148933e-08  1.857765647651286e-07  1.0000
  F   F1        1.0  0.2742886923359844  0.27428876509529676  0.7257112345604716  1.0000
  F   F2        1.0  0.7257114623579223  0.7257109205070954  0.27428879430879877  1.0000
  F   F3        1.0  0.7257113659620716  0.27428861478277106  0.2742887776038739  1.0000
  F   F4        1.0  0.2742888599618722  0.7257110993676626  0.7257113548297607  1.0000
  F   F5        1.0  0.27428866817897307  0.725711421802163  0.2742887443788241  1.0000
  F   F6        1.0  0.7257113075921262  0.27428874673793197  0.725711169389516  1.0000
