data_image0
_chemical_formula_structural       Y2SiS6
_chemical_formula_sum              "Y2 Si1 S6"
_cell_length_a       6.2685373781138
_cell_length_b       6.268537842108014
_cell_length_c       6.268537023883899
_cell_angle_alpha    60.000001612893634
_cell_angle_beta     60.00000366764247
_cell_angle_gamma    60.00000216466277

_space_group_name_H-M_alt    "P 1"
_space_group_IT_number       1

loop_
  _space_group_symop_operation_xyz
  'x, y, z'

loop_
  _atom_site_type_symbol
  _atom_site_label
  _atom_site_symmetry_multiplicity
  _atom_site_fract_x
  _atom_site_fract_y
  _atom_site_fract_z
  _atom_site_occupancy
  Y   Y1        1.0  0.25000011347124323  0.24999991624517887  0.24999993685625302  1.0000
  Y   Y2        1.0  0.7499999602729296  0.7500001707556085  0.750000162921951  1.0000
  Si  Si1       1.0  0.9999999499484066  0.999999984369626  5.517474315802611e-08  1.0000
  S   S1        1.0  0.25095653501286264  0.25095655256524374  0.7490434299428201  1.0000
  S   S2        1.0  0.7490433759055962  0.7490434758216556  0.25095647107308416  1.0000
  S   S3        1.0  0.7490435298486791  0.2509565767832479  0.2509565899518295  1.0000
  S   S4        1.0  0.2509566255622189  0.7490433812669649  0.7490433468218821  1.0000
  S   S5        1.0  0.25095650963586075  0.7490434311858204  0.25095660166611006  1.0000
  S   S6        1.0  0.7490433507106509  0.250956544448566  0.7490434212038413  1.0000
