data_image0
_chemical_formula_structural       Y2SiSe6
_chemical_formula_sum              "Y2 Si1 Se6"
_cell_length_a       6.578610304481653
_cell_length_b       6.578610439035592
_cell_length_c       6.578610331429664
_cell_angle_alpha    59.99999979958168
_cell_angle_beta     60.000000212748446
_cell_angle_gamma    60.000000440341694

_space_group_name_H-M_alt    "P 1"
_space_group_IT_number       1

loop_
  _space_group_symop_operation_xyz
  'x, y, z'

loop_
  _atom_site_type_symbol
  _atom_site_label
  _atom_site_symmetry_multiplicity
  _atom_site_fract_x
  _atom_site_fract_y
  _atom_site_fract_z
  _atom_site_occupancy
  Y   Y1        1.0  0.2500000314828951  0.25000014947248483  0.24999990487046203  1.0000
  Y   Y2        1.0  0.7499999440553935  0.7500000202247206  0.7499998062942775  1.0000
  Si  Si1       1.0  1.1346655637643815e-08  1.8617075466256553e-08  0.9999999880582902  1.0000
  Se  Se1       1.0  0.25189242441856485  0.25189243629418384  0.7481075504367544  1.0000
  Se  Se2       1.0  0.7481076061922397  0.7481074839342075  0.2518925452208538  1.0000
  Se  Se3       1.0  0.7481075607974784  0.2518923186335269  0.25189253368956926  1.0000
  Se  Se4       1.0  0.2518924801683244  0.7481075494670529  0.7481075874146795  1.0000
  Se  Se5       1.0  0.25189242292077435  0.748107558014577  0.2518924606097249  1.0000
  Se  Se6       1.0  0.7481075149089371  0.25189247205455956  0.7481076219578229  1.0000
