data_image0
_chemical_formula_structural       Y2SI6
_chemical_formula_sum              "Y2 S1 I6"
_cell_length_a       7.778243967038345
_cell_length_b       7.7782439621521675
_cell_length_c       7.77824392568614
_cell_angle_alpha    60.00000052875819
_cell_angle_beta     60.000000942208914
_cell_angle_gamma    60.00000049655435

_space_group_name_H-M_alt    "P 1"
_space_group_IT_number       1

loop_
  _space_group_symop_operation_xyz
  'x, y, z'

loop_
  _atom_site_type_symbol
  _atom_site_label
  _atom_site_symmetry_multiplicity
  _atom_site_fract_x
  _atom_site_fract_y
  _atom_site_fract_z
  _atom_site_occupancy
  Y   Y1        1.0  0.2500000564226061  0.24999996970423494  0.25000001700900326  1.0000
  Y   Y2        1.0  0.7499999682701489  0.7500000177585584  0.750000005922673  1.0000
  S   S1        1.0  0.9999999788718805  0.9999999921271121  5.692653223403255e-08  1.0000
  I   I1        1.0  0.2641172818409535  0.26411725518404655  0.7358827073192739  1.0000
  I   I2        1.0  0.7358827280811425  0.7358827543228331  0.2641172631214738  1.0000
  I   I3        1.0  0.7358827258615364  0.26411725060159863  0.264117277276786  1.0000
  I   I4        1.0  0.2641173139466331  0.7358827226899964  0.7358826976142047  1.0000
  I   I5        1.0  0.26411725434159516  0.7358827614221608  0.2641172305137172  1.0000
  I   I6        1.0  0.7358826877116629  0.26411727800169293  0.7358827499035016  1.0000
