data_image0
_chemical_formula_structural       Y2SiTe6
_chemical_formula_sum              "Y2 Si1 Te6"
_cell_length_a       7.211310203639038
_cell_length_b       7.211310340138912
_cell_length_c       7.211310045120811
_cell_angle_alpha    60.000000577066324
_cell_angle_beta     60.00000146168259
_cell_angle_gamma    59.99999958517231

_space_group_name_H-M_alt    "P 1"
_space_group_IT_number       1

loop_
  _space_group_symop_operation_xyz
  'x, y, z'

loop_
  _atom_site_type_symbol
  _atom_site_label
  _atom_site_symmetry_multiplicity
  _atom_site_fract_x
  _atom_site_fract_y
  _atom_site_fract_z
  _atom_site_occupancy
  Y   Y1        1.0  0.24999996577235967  0.2500000445514657  0.24999995418961238  1.0000
  Y   Y2        1.0  0.7500000266314848  0.7499999858964987  0.7500000049148017  1.0000
  Si  Si1       1.0  1.827684272132112e-08  0.9999999932065337  0.9999999665241002  1.0000
  Te  Te1       1.0  0.2530014375175578  0.25300148560178176  0.7469985612245421  1.0000
  Te  Te2       1.0  0.7469985407665621  0.7469985295608829  0.2530014680508075  1.0000
  Te  Te3       1.0  0.7469985583144407  0.2530014355485786  0.25300146538590046  1.0000
  Te  Te4       1.0  0.2530014343974634  0.7469985507418533  0.7469985808186478  1.0000
  Te  Te5       1.0  0.2530014620891371  0.7469985479681618  0.25300143778137807  1.0000
  Te  Te6       1.0  0.7469985575690402  0.25300142473533743  0.7469985615288932  1.0000
