data_image0
_chemical_formula_structural       Y2SiF6
_chemical_formula_sum              "Y2 Si1 F6"
_cell_length_a       5.74845370632958
_cell_length_b       5.748455565073101
_cell_length_c       5.7484533365807335
_cell_angle_alpha    60.000006660111765
_cell_angle_beta     60.00000424998085
_cell_angle_gamma    59.99995876348157

_space_group_name_H-M_alt    "P 1"
_space_group_IT_number       1

loop_
  _space_group_symop_operation_xyz
  'x, y, z'

loop_
  _atom_site_type_symbol
  _atom_site_label
  _atom_site_symmetry_multiplicity
  _atom_site_fract_x
  _atom_site_fract_y
  _atom_site_fract_z
  _atom_site_occupancy
  Y   Y1        1.0  0.24996631026325714  0.2500033130268562  0.250018338386606  1.0000
  Y   Y2        1.0  0.7499886185159576  0.7499909067061303  0.7500078338630405  1.0000
  Si  Si1       1.0  0.9999998920939175  0.9999920679120127  5.0167872632370685e-06  1.0000
  F   F1        1.0  0.25115110200799934  0.2511573698292356  0.7488422986831317  1.0000
  F   F2        1.0  0.7488466111712445  0.7488263078512437  0.25116358431625896  1.0000
  F   F3        1.0  0.7488545644222292  0.25116940120500697  0.2511511090578886  1.0000
  F   F4        1.0  0.25116583663658926  0.7488510435965876  0.7488310428353573  1.0000
  F   F5        1.0  0.2511667451543977  0.748843037354524  0.25115650291622105  1.0000
  F   F6        1.0  0.7488607556550243  0.2511659428809758  0.7488244774397791  1.0000
