data_image0
_chemical_formula_structural       Y2SiBr6
_chemical_formula_sum              "Y2 Si1 Br6"
_cell_length_a       7.28258331688986
_cell_length_b       7.282583290048255
_cell_length_c       7.282582827281389
_cell_angle_alpha    60.0000016678688
_cell_angle_beta     60.00000145950764
_cell_angle_gamma    60.000001810803944

_space_group_name_H-M_alt    "P 1"
_space_group_IT_number       1

loop_
  _space_group_symop_operation_xyz
  'x, y, z'

loop_
  _atom_site_type_symbol
  _atom_site_label
  _atom_site_symmetry_multiplicity
  _atom_site_fract_x
  _atom_site_fract_y
  _atom_site_fract_z
  _atom_site_occupancy
  Y   Y1        1.0  0.24999994672181475  0.2500002874155516  0.24999991724154244  1.0000
  Y   Y2        1.0  0.7500001212285557  0.749999814519485  0.7499999428171693  1.0000
  Si  Si1       1.0  0.9999999568215393  0.9999999915912743  3.9524985524842906e-08  1.0000
  Br  Br1       1.0  0.25243060424279873  0.2524306468407193  0.7475693876494435  1.0000
  Br  Br2       1.0  0.74756943252952  0.7475691776063819  0.2524307503247914  1.0000
  Br  Br3       1.0  0.7475693423476233  0.25243065180404156  0.2524306957805258  1.0000
  Br  Br4       1.0  0.25243072850466525  0.7475692701842734  0.7475693750099776  1.0000
  Br  Br5       1.0  0.2524305480082061  0.7475693569599404  0.2524306756975294  1.0000
  Br  Br6       1.0  0.7475693075397059  0.2524307971091914  0.7475692329131632  1.0000
