data_image0
_chemical_formula_structural       Y2SiI6
_chemical_formula_sum              "Y2 Si1 I6"
_cell_length_a       7.826496660244109
_cell_length_b       7.826496540929833
_cell_length_c       7.826496715374045
_cell_angle_alpha    59.99999771535711
_cell_angle_beta     59.999998539661355
_cell_angle_gamma    59.99999903000146

_space_group_name_H-M_alt    "P 1"
_space_group_IT_number       1

loop_
  _space_group_symop_operation_xyz
  'x, y, z'

loop_
  _atom_site_type_symbol
  _atom_site_label
  _atom_site_symmetry_multiplicity
  _atom_site_fract_x
  _atom_site_fract_y
  _atom_site_fract_z
  _atom_site_occupancy
  Y   Y1        1.0  0.2499999609038499  0.2500000800806186  0.2500000192808142  1.0000
  Y   Y2        1.0  0.7500000178834909  0.7500000117708511  0.7499999141130548  1.0000
  Si  Si1       1.0  0.9999999945152775  2.9732528006706053e-08  1.8541158018458983e-08  1.0000
  I   I1        1.0  0.25375602973643063  0.25375599775626695  0.74624396746877  1.0000
  I   I2        1.0  0.746244009602643  0.7462439876840485  0.2537560067427626  1.0000
  I   I3        1.0  0.7462439890613832  0.2537559811891956  0.25375603332597246  1.0000
  I   I4        1.0  0.2537560573426375  0.7462439432211928  0.7462439883114248  1.0000
  I   I5        1.0  0.25375597557988266  0.7462439323622824  0.25375607351081136  1.0000
  I   I6        1.0  0.7462439685605318  0.25375604212394276  0.7462439691096275  1.0000
