data_image0
_chemical_formula_structural       Y2SiO6
_chemical_formula_sum              "Y2 Si1 O6"
_cell_length_a       5.130200920317556
_cell_length_b       5.130200875407516
_cell_length_c       5.130201171705294
_cell_angle_alpha    59.999996071982736
_cell_angle_beta     59.99999726332094
_cell_angle_gamma    59.99999705740802

_space_group_name_H-M_alt    "P 1"
_space_group_IT_number       1

loop_
  _space_group_symop_operation_xyz
  'x, y, z'

loop_
  _atom_site_type_symbol
  _atom_site_label
  _atom_site_symmetry_multiplicity
  _atom_site_fract_x
  _atom_site_fract_y
  _atom_site_fract_z
  _atom_site_occupancy
  Y   Y1        1.0  0.24999998115718458  0.2499999960721319  0.2500000900913513  1.0000
  Y   Y2        1.0  0.7500000104725522  0.7499999762797828  0.7499999756958028  1.0000
  Si  Si1       1.0  0.9999999821067862  3.342252909057368e-08  1.1727755007879946e-08  1.0000
  O   O1        1.0  0.2434824152838066  0.24348240255823053  0.7565175713364346  1.0000
  O   O2        1.0  0.7565175634770047  0.7565176151528323  0.2434824158298857  1.0000
  O   O3        1.0  0.7565175571952603  0.24348243379480083  0.243482406182649  1.0000
  O   O4        1.0  0.24348244605117614  0.7565175982402035  0.7565175420864748  1.0000
  O   O5        1.0  0.24348244387772522  0.756517581550106  0.24348242445224297  1.0000
  O   O6        1.0  0.7565176127518594  0.24348240512575023  0.7565175704851549  1.0000
