data_image0
_chemical_formula_structural       Y2SnS6
_chemical_formula_sum              "Y2 Sn1 S6"
_cell_length_a       6.5359538014714715
_cell_length_b       6.535953606636475
_cell_length_c       6.53595354095734
_cell_angle_alpha    60.00000017775102
_cell_angle_beta     60.00000094990887
_cell_angle_gamma    60.000000483367046

_space_group_name_H-M_alt    "P 1"
_space_group_IT_number       1

loop_
  _space_group_symop_operation_xyz
  'x, y, z'

loop_
  _atom_site_type_symbol
  _atom_site_label
  _atom_site_symmetry_multiplicity
  _atom_site_fract_x
  _atom_site_fract_y
  _atom_site_fract_z
  _atom_site_occupancy
  Y   Y1        1.0  0.24999998492565637  0.25000004441790374  0.24999996743634964  1.0000
  Y   Y2        1.0  0.7500000256620664  0.7499999364986258  0.7500000386839776  1.0000
  Sn  Sn1       1.0  2.2235184912295697e-08  7.495432033408093e-09  0.9999999989046792  1.0000
  S   S1        1.0  0.2623812671980377  0.26238135471040935  0.7376187062216754  1.0000
  S   S2        1.0  0.7376187259187318  0.7376186468185576  0.262381305977903  1.0000
  S   S3        1.0  0.7376186851844547  0.26238132686909166  0.2623812568356833  1.0000
  S   S4        1.0  0.26238129597576765  0.737618684029165  0.7376187275875499  1.0000
  S   S5        1.0  0.26238126058334754  0.7376186842004624  0.262381280528949  1.0000
  S   S6        1.0  0.7376187483264656  0.26238132295007865  0.7376187056633341  1.0000
