data_image0
_chemical_formula_structural       Y2SnO6
_chemical_formula_sum              "Y2 Sn1 O6"
_cell_length_a       5.34731379725487
_cell_length_b       5.347314233647786
_cell_length_c       5.347313587791406
_cell_angle_alpha    60.0000019322818
_cell_angle_beta     60.000002001874854
_cell_angle_gamma    59.99999666022724

_space_group_name_H-M_alt    "P 1"
_space_group_IT_number       1

loop_
  _space_group_symop_operation_xyz
  'x, y, z'

loop_
  _atom_site_type_symbol
  _atom_site_label
  _atom_site_symmetry_multiplicity
  _atom_site_fract_x
  _atom_site_fract_y
  _atom_site_fract_z
  _atom_site_occupancy
  Y   Y1        1.0  0.24999991532491217  0.25000003073460475  0.24999997318508338  1.0000
  Y   Y2        1.0  0.7500000391745364  0.7500000418151561  0.7499998897844795  1.0000
  Sn  Sn1       1.0  4.521646805726505e-08  6.871182394560569e-09  0.9999996728704104  1.0000
  O   O1        1.0  0.26570857691687855  0.2657085204178541  0.734291462111264  1.0000
  O   O2        1.0  0.7342914181546965  0.7342914628065907  0.26570858419321797  1.0000
  O   O3        1.0  0.7342914894701862  0.26570843286665696  0.2657085112404425  1.0000
  O   O4        1.0  0.26570836809563564  0.7342916648774226  0.7342916082703277  1.0000
  O   O5        1.0  0.2657085007499491  0.7342915419538134  0.2657084749120576  1.0000
  O   O6        1.0  0.734291608683948  0.2657083702684518  0.7342916750089153  1.0000
