data_image0
_chemical_formula_structural       Y2SnBr6
_chemical_formula_sum              "Y2 Sn1 Br6"
_cell_length_a       7.398012420402454
_cell_length_b       7.398012520359191
_cell_length_c       7.398012399584314
_cell_angle_alpha    60.000000241323676
_cell_angle_beta     59.999999041651954
_cell_angle_gamma    60.000000765092885

_space_group_name_H-M_alt    "P 1"
_space_group_IT_number       1

loop_
  _space_group_symop_operation_xyz
  'x, y, z'

loop_
  _atom_site_type_symbol
  _atom_site_label
  _atom_site_symmetry_multiplicity
  _atom_site_fract_x
  _atom_site_fract_y
  _atom_site_fract_z
  _atom_site_occupancy
  Y   Y1        1.0  0.2499999476871357  0.2500000608830986  0.2499999445303236  1.0000
  Y   Y2        1.0  0.7499998944470432  0.7499999161129501  0.750000143923488  1.0000
  Sn  Sn1       1.0  0.9999999716995399  3.807662070337132e-08  0.9999999626707738  1.0000
  Br  Br1       1.0  0.26035932655645155  0.26035939201177355  0.7396406570394392  1.0000
  Br  Br2       1.0  0.739640655199892  0.7396406296829181  0.26035932573682347  1.0000
  Br  Br3       1.0  0.7396406477684979  0.26035936026052225  0.26035936257523606  1.0000
  Br  Br4       1.0  0.26035940157673504  0.7396406366015909  0.7396406718154489  1.0000
  Br  Br5       1.0  0.26035946771531954  0.7396406313538253  0.2603592873405119  1.0000
  Br  Br6       1.0  0.7396406750278848  0.260359324120657  0.7396406588661392  1.0000
