data_image0
_chemical_formula_structural       Y2SnCl6
_chemical_formula_sum              "Y2 Sn1 Cl6"
_cell_length_a       7.154687557231652
_cell_length_b       7.15468792529643
_cell_length_c       7.1546878314461715
_cell_angle_alpha    59.999999251371214
_cell_angle_beta     59.999999745477176
_cell_angle_gamma    60.00000353480762

_space_group_name_H-M_alt    "P 1"
_space_group_IT_number       1

loop_
  _space_group_symop_operation_xyz
  'x, y, z'

loop_
  _atom_site_type_symbol
  _atom_site_label
  _atom_site_symmetry_multiplicity
  _atom_site_fract_x
  _atom_site_fract_y
  _atom_site_fract_z
  _atom_site_occupancy
  Y   Y1        1.0  0.2500002872745824  0.2500000734818733  0.2500000561085695  1.0000
  Y   Y2        1.0  0.7500000063437121  0.7499999157438618  0.7500001376282478  1.0000
  Sn  Sn1       1.0  0.999999976882201  8.387857008596567e-08  0.9999998284534266  1.0000
  Cl  Cl1       1.0  0.2618056648493942  0.26180566053025645  0.7381941536764582  1.0000
  Cl  Cl2       1.0  0.7381941769558416  0.738194352660778  0.26180567534263727  1.0000
  Cl  Cl3       1.0  0.7381940909348756  0.2618058046306194  0.261805710564813  1.0000
  Cl  Cl4       1.0  0.2618056512136095  0.7381943283869322  0.7381944396207469  1.0000
  Cl  Cl5       1.0  0.26180584198061413  0.7381940900970625  0.2618057682640817  1.0000
  Cl  Cl6       1.0  0.7381942469679693  0.2618057142534601  0.7381942344841322  1.0000
