data_image0
_chemical_formula_structural       Y2SnTe6
_chemical_formula_sum              "Y2 Sn1 Te6"
_cell_length_a       7.406843719554149
_cell_length_b       7.4068436068061825
_cell_length_c       7.406843763636816
_cell_angle_alpha    59.999999886320964
_cell_angle_beta     59.999999825115836
_cell_angle_gamma    60.00000031681849

_space_group_name_H-M_alt    "P 1"
_space_group_IT_number       1

loop_
  _space_group_symop_operation_xyz
  'x, y, z'

loop_
  _atom_site_type_symbol
  _atom_site_label
  _atom_site_symmetry_multiplicity
  _atom_site_fract_x
  _atom_site_fract_y
  _atom_site_fract_z
  _atom_site_occupancy
  Y   Y1        1.0  0.2500000285672438  0.25000000193913735  0.24999999510215618  1.0000
  Y   Y2        1.0  0.7499999901158453  0.7500000587304171  0.7499999904416764  1.0000
  Sn  Sn1       1.0  0.9999999994488229  1.6535312954644632e-09  0.9999999791972819  1.0000
  Te  Te1       1.0  0.26664670789493006  0.26664667343983917  0.7333532952171926  1.0000
  Te  Te2       1.0  0.7333532877198451  0.7333533161278635  0.26664670770946247  1.0000
  Te  Te3       1.0  0.7333532941403944  0.2666466919055806  0.2666466868406246  1.0000
  Te  Te4       1.0  0.26664667249980195  0.7333532910479961  0.7333533217294582  1.0000
  Te  Te5       1.0  0.2666467049757555  0.7333532681401262  0.26664671959946734  1.0000
  Te  Te6       1.0  0.7333533113783914  0.2666466966246051  0.7333533042604257  1.0000
