data_image0
_chemical_formula_structural       Y2SnI6
_chemical_formula_sum              "Y2 Sn1 I6"
_cell_length_a       7.986247102679219
_cell_length_b       7.9862469662331765
_cell_length_c       7.986246900241771
_cell_angle_alpha    60.00000053153298
_cell_angle_beta     59.99999990869031
_cell_angle_gamma    59.9999997547436

_space_group_name_H-M_alt    "P 1"
_space_group_IT_number       1

loop_
  _space_group_symop_operation_xyz
  'x, y, z'

loop_
  _atom_site_type_symbol
  _atom_site_label
  _atom_site_symmetry_multiplicity
  _atom_site_fract_x
  _atom_site_fract_y
  _atom_site_fract_z
  _atom_site_occupancy
  Y   Y1        1.0  0.24999993037399834  0.24999996108560477  0.25000010056789607  1.0000
  Y   Y2        1.0  0.7500000637457387  0.7499999676030237  0.749999880301101  1.0000
  Sn  Sn1       1.0  1.4634025076684047e-08  0.9999999907985951  6.0487581428188215e-09  1.0000
  I   I1        1.0  0.26203815781303286  0.2620382313311753  0.737961767755127  1.0000
  I   I2        1.0  0.7379618472145055  0.7379618077743124  0.262038218815629  1.0000
  I   I3        1.0  0.737961809046747  0.2620381887754748  0.2620381910782874  1.0000
  I   I4        1.0  0.2620381833188647  0.7379618319272031  0.7379618147812945  1.0000
  I   I5        1.0  0.26203816684872694  0.7379618426641311  0.26203822080982325  1.0000
  I   I6        1.0  0.737961839040825  0.2620381765049795  0.7379617965847087  1.0000
