data_image0
_chemical_formula_structural       Y2SnSe6
_chemical_formula_sum              "Y2 Sn1 Se6"
_cell_length_a       6.899021916056938
_cell_length_b       6.899021922445655
_cell_length_c       6.899021840291467
_cell_angle_alpha    60.000000834886386
_cell_angle_beta     60.00000032691262
_cell_angle_gamma    59.99999948589276

_space_group_name_H-M_alt    "P 1"
_space_group_IT_number       1

loop_
  _space_group_symop_operation_xyz
  'x, y, z'

loop_
  _atom_site_type_symbol
  _atom_site_label
  _atom_site_symmetry_multiplicity
  _atom_site_fract_x
  _atom_site_fract_y
  _atom_site_fract_z
  _atom_site_occupancy
  Y   Y1        1.0  0.25000008113200506  0.2500000262811154  0.24999989340596407  1.0000
  Y   Y2        1.0  0.7499999963648499  0.749999926172349  0.7500001061879846  1.0000
  Sn  Sn1       1.0  1.4268642636633866e-08  1.2426709195195903e-08  0.9999999794049199  1.0000
  Se  Se1       1.0  0.26468171294576914  0.26468174379631365  0.7353182477548692  1.0000
  Se  Se2       1.0  0.7353182196803132  0.7353182867678968  0.2646816982502427  1.0000
  Se  Se3       1.0  0.7353183423525594  0.2646817390204065  0.26468166301257745  1.0000
  Se  Se4       1.0  0.2646816722015129  0.7353182666903847  0.7353183428735803  1.0000
  Se  Se5       1.0  0.2646817071269156  0.7353182980026575  0.2646817216753485  1.0000
  Se  Se6       1.0  0.735318252194519  0.2646817077081345  0.7353183408167446  1.0000
