data_image0
_chemical_formula_structural       Y2SnF6
_chemical_formula_sum              "Y2 Sn1 F6"
_cell_length_a       5.773282467243168
_cell_length_b       5.773281697966009
_cell_length_c       5.77328240810513
_cell_angle_alpha    60.0000044390046
_cell_angle_beta     60.000005778337155
_cell_angle_gamma    59.99999967541501

_space_group_name_H-M_alt    "P 1"
_space_group_IT_number       1

loop_
  _space_group_symop_operation_xyz
  'x, y, z'

loop_
  _atom_site_type_symbol
  _atom_site_label
  _atom_site_symmetry_multiplicity
  _atom_site_fract_x
  _atom_site_fract_y
  _atom_site_fract_z
  _atom_site_occupancy
  Y   Y1        1.0  0.25000052640085907  0.24999951300941994  0.24999915027909936  1.0000
  Y   Y2        1.0  0.7500005269192066  0.7499997758054812  0.749999094171538  1.0000
  Sn  Sn1       1.0  2.0786935528744736e-07  0.9999998324092527  0.9999996403657823  1.0000
  F   F1        1.0  0.2675485876972801  0.2675493240384677  0.732451498762849  1.0000
  F   F2        1.0  0.7324506276074437  0.7324515006713682  0.26754982229345137  1.0000
  F   F3        1.0  0.7324511894064978  0.26754873523562006  0.26754902106701917  1.0000
  F   F4        1.0  0.2675491462258375  0.7324507805693764  0.7324511055828868  1.0000
  F   F5        1.0  0.2675486384127206  0.7324514835339199  0.26754917742431866  1.0000
  F   F6        1.0  0.7324505329355242  0.26754905902944914  0.7324514077147658  1.0000
