data_image0
_chemical_formula_structural       Y2SO6
_chemical_formula_sum              "Y2 S1 O6"
_cell_length_a       5.135287569013421
_cell_length_b       5.13528778634749
_cell_length_c       5.135287942049926
_cell_angle_alpha    59.999998623759915
_cell_angle_beta     59.999998493893834
_cell_angle_gamma    59.99999929889661

_space_group_name_H-M_alt    "P 1"
_space_group_IT_number       1

loop_
  _space_group_symop_operation_xyz
  'x, y, z'

loop_
  _atom_site_type_symbol
  _atom_site_label
  _atom_site_symmetry_multiplicity
  _atom_site_fract_x
  _atom_site_fract_y
  _atom_site_fract_z
  _atom_site_occupancy
  Y   Y1        1.0  0.2500000188813658  0.2500000022123407  0.24999999608477352  1.0000
  Y   Y2        1.0  0.749999984031568  0.7500000018671056  0.7499999879993337  1.0000
  S   S1        1.0  5.950696018232261e-09  2.384958404167586e-09  1.9199898518445614e-08  1.0000
  O   O1        1.0  0.2318629692545742  0.23186292724285507  0.7681370308492024  1.0000
  O   O2        1.0  0.7681370773123964  0.7681370672967565  0.23186295759821923  1.0000
  O   O3        1.0  0.768137075868275  0.23186290501312126  0.23186291496781214  1.0000
  O   O4        1.0  0.23186290060752276  0.768137070446822  0.7681370888553727  1.0000
  O   O5        1.0  0.2318629162024061  0.7681371103078172  0.23186290842613858  1.0000
  O   O6        1.0  0.7681370684492462  0.23186290808138096  0.7681370737391122  1.0000
