data_image0
_chemical_formula_structural       Y2TaI6
_chemical_formula_sum              "Y2 Ta1 I6"
_cell_length_a       7.960866458324061
_cell_length_b       7.96086649809237
_cell_length_c       7.96086645170593
_cell_angle_alpha    59.99999983169958
_cell_angle_beta     59.999999172871775
_cell_angle_gamma    59.99999892602557

_space_group_name_H-M_alt    "P 1"
_space_group_IT_number       1

loop_
  _space_group_symop_operation_xyz
  'x, y, z'

loop_
  _atom_site_type_symbol
  _atom_site_label
  _atom_site_symmetry_multiplicity
  _atom_site_fract_x
  _atom_site_fract_y
  _atom_site_fract_z
  _atom_site_occupancy
  Y   Y1        1.0  0.2500000210408177  0.24999999644306384  0.25000006485079657  1.0000
  Y   Y2        1.0  0.7499999891911349  0.7500000631751162  0.7499998918642202  1.0000
  Ta  Ta1       1.0  7.765173787643339e-09  0.9999999984615432  0.99999998306905  1.0000
  I   I1        1.0  0.25267667529658927  0.2526766414893342  0.747323332790563  1.0000
  I   I2        1.0  0.7473233120370738  0.7473233258214415  0.25267671418706267  1.0000
  I   I3        1.0  0.7473233510174677  0.2526766195392046  0.2526766677512301  1.0000
  I   I4        1.0  0.25267666336232464  0.7473233493100274  0.7473233486042216  1.0000
  I   I5        1.0  0.2526766141491684  0.7473233574294502  0.25267666154853025  1.0000
  I   I6        1.0  0.7473233656530863  0.2526766498812009  0.7473233440719683  1.0000
