data_image0
_chemical_formula_structural       Y2TaS6
_chemical_formula_sum              "Y2 Ta1 S6"
_cell_length_a       6.453871419314159
_cell_length_b       6.453871360176372
_cell_length_c       6.453871440574754
_cell_angle_alpha    59.999999057702325
_cell_angle_beta     59.9999988877325
_cell_angle_gamma    59.99999832508924

_space_group_name_H-M_alt    "P 1"
_space_group_IT_number       1

loop_
  _space_group_symop_operation_xyz
  'x, y, z'

loop_
  _atom_site_type_symbol
  _atom_site_label
  _atom_site_symmetry_multiplicity
  _atom_site_fract_x
  _atom_site_fract_y
  _atom_site_fract_z
  _atom_site_occupancy
  Y   Y1        1.0  0.24999992198981702  0.2500000406912331  0.25000003121215747  1.0000
  Y   Y2        1.0  0.7499999264171101  0.7500000271891845  0.7499999849314783  1.0000
  Ta  Ta1       1.0  2.0728819707518523e-08  7.590760778588711e-09  2.9225021705474636e-08  1.0000
  S   S1        1.0  0.2594855632595154  0.25948543175982036  0.7405144962950633  1.0000
  S   S2        1.0  0.740514481722474  0.7405144918961348  0.259485495222729  1.0000
  S   S3        1.0  0.7405145077327827  0.25948551296282024  0.25948553289308124  1.0000
  S   S4        1.0  0.2594855462662924  0.7405144695215331  0.7405144510427478  1.0000
  S   S5        1.0  0.2594855156229381  0.740514468691438  0.2594855466057039  1.0000
  S   S6        1.0  0.740514522038018  0.2594855574397916  0.7405144391703221  1.0000
