data_image0
_chemical_formula_structural       Y2TaF6
_chemical_formula_sum              "Y2 Ta1 F6"
_cell_length_a       5.845213911839046
_cell_length_b       6.2787142754908984
_cell_length_c       5.93737935902068
_cell_angle_alpha    57.162154479141755
_cell_angle_beta     63.55281373293932
_cell_angle_gamma    59.590342137363535

_space_group_name_H-M_alt    "P 1"
_space_group_IT_number       1

loop_
  _space_group_symop_operation_xyz
  'x, y, z'

loop_
  _atom_site_type_symbol
  _atom_site_label
  _atom_site_symmetry_multiplicity
  _atom_site_fract_x
  _atom_site_fract_y
  _atom_site_fract_z
  _atom_site_occupancy
  Y   Y1        1.0  0.12658469438686806  0.2456094558746478  0.31672983938221816  1.0000
  Y   Y2        1.0  0.8346725479276118  0.7385429787512626  0.6848742155329005  1.0000
  Ta  Ta1       1.0  0.9925802315929588  0.011534390379462824  0.06494027056600722  1.0000
  F   F1        1.0  0.16535575277630404  0.33033253040884  0.8834653010125973  1.0000
  F   F2        1.0  0.8908284036995625  0.71207485891631  0.05320395800177313  1.0000
  F   F3        1.0  0.566927934765522  0.11158112883635976  0.17610837459097076  1.0000
  F   F4        1.0  0.3897531099395368  0.8966671720174332  0.8129383022531349  1.0000
  F   F5        1.0  0.18078510219233915  0.5969759049254254  0.32356085081199304  1.0000
  F   F6        1.0  0.852535010930282  0.3566841513764961  0.6841539345582934  1.0000
