data_image0
_chemical_formula_structural       Y2TaTe6
_chemical_formula_sum              "Y2 Ta1 Te6"
_cell_length_a       7.312290618364677
_cell_length_b       7.312290624663501
_cell_length_c       7.312290588994249
_cell_angle_alpha    60.00000016295845
_cell_angle_beta     60.00000041425378
_cell_angle_gamma    59.99999976961737

_space_group_name_H-M_alt    "P 1"
_space_group_IT_number       1

loop_
  _space_group_symop_operation_xyz
  'x, y, z'

loop_
  _atom_site_type_symbol
  _atom_site_label
  _atom_site_symmetry_multiplicity
  _atom_site_fract_x
  _atom_site_fract_y
  _atom_site_fract_z
  _atom_site_occupancy
  Y   Y1        1.0  0.25000003141740695  0.24999997937113785  0.24999997674709154  1.0000
  Y   Y2        1.0  0.7499999696273539  0.7500000419580036  0.7500000021716368  1.0000
  Ta  Ta1       1.0  1.9411988929641104e-08  3.3498253513919807e-09  2.5543227235178597e-08  1.0000
  Te  Te1       1.0  0.2611929188156887  0.26119293657981885  0.7388070716308256  1.0000
  Te  Te2       1.0  0.7388070714625816  0.7388070696751082  0.26119292157581575  1.0000
  Te  Te3       1.0  0.7388070502845057  0.26119292966519125  0.26119293497387996  1.0000
  Te  Te4       1.0  0.26119295793885555  0.7388070464413065  0.7388070602317491  1.0000
  Te  Te5       1.0  0.2611929261275069  0.738807062014723  0.26119295038110074  1.0000
  Te  Te6       1.0  0.7388070581216418  0.2611929291659894  0.7388070533772088  1.0000
