data_image0
_chemical_formula_structural       Y2TaBr6
_chemical_formula_sum              "Y2 Ta1 Br6"
_cell_length_a       7.2218792090767
_cell_length_b       7.22187923097885
_cell_length_c       7.221878739421204
_cell_angle_alpha    60.000003679568515
_cell_angle_beta     60.00000467159441
_cell_angle_gamma    60.00000335994197

_space_group_name_H-M_alt    "P 1"
_space_group_IT_number       1

loop_
  _space_group_symop_operation_xyz
  'x, y, z'

loop_
  _atom_site_type_symbol
  _atom_site_label
  _atom_site_symmetry_multiplicity
  _atom_site_fract_x
  _atom_site_fract_y
  _atom_site_fract_z
  _atom_site_occupancy
  Y   Y1        1.0  0.25000008742619667  0.2500000252659664  0.24999987915045593  1.0000
  Y   Y2        1.0  0.7499996598234097  0.7499998349827824  0.7499999233877407  1.0000
  Ta  Ta1       1.0  1.0424937333323406e-07  9.496934046102306e-08  0.9999999045446898  1.0000
  Br  Br1       1.0  0.25498608331622347  0.25498605972520627  0.7450139500149122  1.0000
  Br  Br2       1.0  0.7450139392808506  0.7450138666629094  0.2549861553408569  1.0000
  Br  Br3       1.0  0.7450139711767481  0.2549860771960425  0.2549861406454782  1.0000
  Br  Br4       1.0  0.25498613496445327  0.7450139679037489  0.7450139342011354  1.0000
  Br  Br5       1.0  0.2549860703595812  0.7450139900762432  0.25498601979407476  1.0000
  Br  Br6       1.0  0.7450139639118291  0.2549860787658823  0.7450140708081789  1.0000
