data_image0
_chemical_formula_structural       Y2TaI6
_chemical_formula_sum              "Y2 Ta1 I6"
_cell_length_a       7.960779655653548
_cell_length_b       7.960779774572142
_cell_length_c       7.960780043891686
_cell_angle_alpha    59.99999913275675
_cell_angle_beta     59.99999922660226
_cell_angle_gamma    60.00000002002815

_space_group_name_H-M_alt    "P 1"
_space_group_IT_number       1

loop_
  _space_group_symop_operation_xyz
  'x, y, z'

loop_
  _atom_site_type_symbol
  _atom_site_label
  _atom_site_symmetry_multiplicity
  _atom_site_fract_x
  _atom_site_fract_y
  _atom_site_fract_z
  _atom_site_occupancy
  Y   Y1        1.0  0.25000003153468603  0.2500000334740324  0.24999998941243917  1.0000
  Y   Y2        1.0  0.7500000168660762  0.7499999681133752  0.7499999375955713  1.0000
  Ta  Ta1       1.0  0.999999992234742  1.5384734673940116e-09  3.7029666562275546e-08  1.0000
  I   I1        1.0  0.25267880503756496  0.25267883108905426  0.7473211810203126  1.0000
  I   I2        1.0  0.7473211848309029  0.7473211720368268  0.25267881845014883  1.0000
  I   I3        1.0  0.7473211524386849  0.2526788238180943  0.2526788283386066  1.0000
  I   I4        1.0  0.2526788384554319  0.7473211762308395  0.7473211746698206  1.0000
  I   I5        1.0  0.25267881689891997  0.7473211717728943  0.25267883500691946  1.0000
  I   I6        1.0  0.747321165893088  0.25267882212214565  0.7473212040211503  1.0000
