data_image0
_chemical_formula_structural       Y2TaF6
_chemical_formula_sum              "Y2 Ta1 F6"
_cell_length_a       7.1318623321431485
_cell_length_b       5.151784859030595
_cell_length_c       6.803865367781519
_cell_angle_alpha    64.4056374994252
_cell_angle_beta     54.84287858143308
_cell_angle_gamma    54.8172771862042

_space_group_name_H-M_alt    "P 1"
_space_group_IT_number       1

loop_
  _space_group_symop_operation_xyz
  'x, y, z'

loop_
  _atom_site_type_symbol
  _atom_site_label
  _atom_site_symmetry_multiplicity
  _atom_site_fract_x
  _atom_site_fract_y
  _atom_site_fract_z
  _atom_site_occupancy
  Y   Y1        1.0  0.9906105899436263  0.2825600831481104  0.16738583987450392  1.0000
  Y   Y2        1.0  0.7416502321913959  0.7650555801048013  0.7009243381933513  1.0000
  Ta  Ta1       1.0  0.012851434252793004  0.9766848357613166  0.8434492053343146  1.0000
  F   F1        1.0  0.40899726908993933  0.06247755409496805  0.9970405433834824  1.0000
  F   F2        1.0  0.8128646485410699  0.8005827633395816  0.18341845635101284  1.0000
  F   F3        1.0  0.6346406799332597  0.23969937730954397  0.45686056018110643  1.0000
  F   F4        1.0  0.38577446675471455  0.7986638426177024  0.7250969713358127  1.0000
  F   F5        1.0  0.08790509073764578  0.7705121715607041  0.36798063748990906  1.0000
  F   F6        1.0  0.9247053015749422  0.30376250156326423  0.5578423706404882  1.0000
