data_image0
_chemical_formula_structural       Y2TaCl6
_chemical_formula_sum              "Y2 Ta1 Cl6"
_cell_length_a       6.81063644046857
_cell_length_b       6.810636403360871
_cell_length_c       6.810635930982578
_cell_angle_alpha    60.00000182878297
_cell_angle_beta     59.99999979728195
_cell_angle_gamma    60.00000132896089

_space_group_name_H-M_alt    "P 1"
_space_group_IT_number       1

loop_
  _space_group_symop_operation_xyz
  'x, y, z'

loop_
  _atom_site_type_symbol
  _atom_site_label
  _atom_site_symmetry_multiplicity
  _atom_site_fract_x
  _atom_site_fract_y
  _atom_site_fract_z
  _atom_site_occupancy
  Y   Y1        1.0  0.24999997376532276  0.25000006411969056  0.2499998876838557  1.0000
  Y   Y2        1.0  0.7499998523355796  0.7499999262132594  0.7500002564092538  1.0000
  Ta  Ta1       1.0  3.521719686347922e-07  0.9999999658326344  0.9999999011976499  1.0000
  Cl  Cl1       1.0  0.25736146024003714  0.25736111491862596  0.7426387002902304  1.0000
  Cl  Cl2       1.0  0.7426387280527076  0.7426387603242436  0.2573611528667412  1.0000
  Cl  Cl3       1.0  0.7426386619480169  0.25736132530755595  0.25736126804641735  1.0000
  Cl  Cl4       1.0  0.2573611802315594  0.7426387998965832  0.7426387256888847  1.0000
  Cl  Cl5       1.0  0.2573613286276728  0.7426388263209008  0.25736116000900056  1.0000
  Cl  Cl6       1.0  0.7426385196666678  0.2573612449347627  0.7426388914138655  1.0000
