data_image0
_chemical_formula_structural       Y2TaO6
_chemical_formula_sum              "Y2 Ta1 O6"
_cell_length_a       5.372636692441491
_cell_length_b       5.372636371817023
_cell_length_c       5.372636536517905
_cell_angle_alpha    59.999999057719556
_cell_angle_beta     59.999999319865246
_cell_angle_gamma    59.99999934343177

_space_group_name_H-M_alt    "P 1"
_space_group_IT_number       1

loop_
  _space_group_symop_operation_xyz
  'x, y, z'

loop_
  _atom_site_type_symbol
  _atom_site_label
  _atom_site_symmetry_multiplicity
  _atom_site_fract_x
  _atom_site_fract_y
  _atom_site_fract_z
  _atom_site_occupancy
  Y   Y1        1.0  0.24999986048512268  0.25000000111237386  0.250000081452337  1.0000
  Y   Y2        1.0  0.7500000214393827  0.7499999600247715  0.7499999548182794  1.0000
  Ta  Ta1       1.0  1.8974277132905727e-08  0.9999999817632195  0.9999999959086844  1.0000
  O   O1        1.0  0.25648529109537616  0.25648525464307587  0.7435147842998511  1.0000
  O   O2        1.0  0.7435146885201274  0.743514768043206  0.2564853156695299  1.0000
  O   O3        1.0  0.7435147627271279  0.25648525798732613  0.2564852578358993  1.0000
  O   O4        1.0  0.25648529792943575  0.743514760139761  0.7435147368863403  1.0000
  O   O5        1.0  0.2564852438136763  0.7435146951757324  0.25648526219016626  1.0000
  O   O6        1.0  0.7435148380967634  0.256485297875781  0.7435146599915798  1.0000
