data_image0
_chemical_formula_structural       Y2TeF6
_chemical_formula_sum              "Y2 Te1 F6"
_cell_length_a       5.578320269812749
_cell_length_b       5.578319571867475
_cell_length_c       5.578321094631337
_cell_angle_alpha    60.00000088192086
_cell_angle_beta     60.000002914227025
_cell_angle_gamma    59.99999992265497

_space_group_name_H-M_alt    "P 1"
_space_group_IT_number       1

loop_
  _space_group_symop_operation_xyz
  'x, y, z'

loop_
  _atom_site_type_symbol
  _atom_site_label
  _atom_site_symmetry_multiplicity
  _atom_site_fract_x
  _atom_site_fract_y
  _atom_site_fract_z
  _atom_site_occupancy
  Y   Y1        1.0  0.250000661969804  0.2499982444553318  0.25000117052660614  1.0000
  Y   Y2        1.0  0.7500005933880538  0.7500002771155406  0.7499982271152771  1.0000
  Te  Te1       1.0  0.9999995867970061  1.0319058378429488e-07  1.2990903146715774e-07  1.0000
  F   F1        1.0  0.2844305868856367  0.2844311092837815  0.7155691945481639  1.0000
  F   F2        1.0  0.7155687796530986  0.7155695639207974  0.28443167252655926  1.0000
  F   F3        1.0  0.7155689990604835  0.28443038746594446  0.2844315612470301  1.0000
  F   F4        1.0  0.2844308321007634  0.7155699103004493  0.7155682537639432  1.0000
  F   F5        1.0  0.2844306769043349  0.715569007331992  0.28443091193481856  1.0000
  F   F6        1.0  0.715569247007724  0.28443134751856786  0.7155689303399574  1.0000
