data_image0
_chemical_formula_structural       Y2TeCl6
_chemical_formula_sum              "Y2 Te1 Cl6"
_cell_length_a       7.261261390256211
_cell_length_b       7.261261197946604
_cell_length_c       7.261260647794873
_cell_angle_alpha    59.999999770707205
_cell_angle_beta     60.00000536889768
_cell_angle_gamma    60.00000311304068

_space_group_name_H-M_alt    "P 1"
_space_group_IT_number       1

loop_
  _space_group_symop_operation_xyz
  'x, y, z'

loop_
  _atom_site_type_symbol
  _atom_site_label
  _atom_site_symmetry_multiplicity
  _atom_site_fract_x
  _atom_site_fract_y
  _atom_site_fract_z
  _atom_site_occupancy
  Y   Y1        1.0  0.2500000388138116  0.2499998617431377  0.2499995864170929  1.0000
  Y   Y2        1.0  0.7499992540153319  0.7500003358034684  0.7499996359713883  1.0000
  Te  Te1       1.0  2.7193574846158027e-08  4.722712905790305e-08  1.4595343466656326e-07  1.0000
  Cl  Cl1       1.0  0.26184962477974444  0.2618492947011334  0.7381507305076886  1.0000
  Cl  Cl2       1.0  0.7381504972322561  0.7381507004434376  0.2618495515302165  1.0000
  Cl  Cl3       1.0  0.7381505514423026  0.2618494234100201  0.2618496113538085  1.0000
  Cl  Cl4       1.0  0.2618498716561232  0.7381502934318002  0.7381506248629861  1.0000
  Cl  Cl5       1.0  0.26184957221953836  0.7381506002007402  0.26184938815260084  1.0000
  Cl  Cl6       1.0  0.7381505752993424  0.26184944723102327  0.7381506897277074  1.0000
