data_image0
_chemical_formula_structural       Y2TeI6
_chemical_formula_sum              "Y2 Te1 I6"
_cell_length_a       8.051299796317322
_cell_length_b       8.051299810970145
_cell_length_c       8.051299709326276
_cell_angle_alpha    60.00000075065452
_cell_angle_beta     60.00000077666104
_cell_angle_gamma    60.000000066540224

_space_group_name_H-M_alt    "P 1"
_space_group_IT_number       1

loop_
  _space_group_symop_operation_xyz
  'x, y, z'

loop_
  _atom_site_type_symbol
  _atom_site_label
  _atom_site_symmetry_multiplicity
  _atom_site_fract_x
  _atom_site_fract_y
  _atom_site_fract_z
  _atom_site_occupancy
  Y   Y1        1.0  0.24999997239314656  0.2500000466565677  0.2500000323044863  1.0000
  Y   Y2        1.0  0.7499999607144304  0.7499999878520456  0.7500000183069943  1.0000
  Te  Te1       1.0  0.9999999907287983  0.9999999847882343  0.9999999960950222  1.0000
  I   I1        1.0  0.26429659066002437  0.2642966553093798  0.7357033723914317  1.0000
  I   I2        1.0  0.7357034590659681  0.7357033305215824  0.264296604504531  1.0000
  I   I3        1.0  0.7357033709978299  0.26429658840073655  0.2642965967895809  1.0000
  I   I4        1.0  0.2642966253155482  0.7357034156843448  0.7357033914754517  1.0000
  I   I5        1.0  0.26429661911974406  0.7357034024819958  0.26429657159103515  1.0000
  I   I6        1.0  0.7357034134830976  0.26429657878543683  0.735703419874374  1.0000
