data_image0
_chemical_formula_structural       Y2TeO6
_chemical_formula_sum              "Y2 Te1 O6"
_cell_length_a       5.390678026339918
_cell_length_b       5.390678060830389
_cell_length_c       5.390677984122004
_cell_angle_alpha    60.00000033029004
_cell_angle_beta     60.00000020027067
_cell_angle_gamma    59.99999915611551

_space_group_name_H-M_alt    "P 1"
_space_group_IT_number       1

loop_
  _space_group_symop_operation_xyz
  'x, y, z'

loop_
  _atom_site_type_symbol
  _atom_site_label
  _atom_site_symmetry_multiplicity
  _atom_site_fract_x
  _atom_site_fract_y
  _atom_site_fract_z
  _atom_site_occupancy
  Y   Y1        1.0  0.24999993234650547  0.2500000661885121  0.2500000148141837  1.0000
  Y   Y2        1.0  0.7499999772562067  0.749999921385423  0.7500000947793172  1.0000
  Te  Te1       1.0  0.9999999652300358  0.9999999886401599  0.9999999637031668  1.0000
  O   O1        1.0  0.24891978654867988  0.24891987190551937  0.7510801733435669  1.0000
  O   O2        1.0  0.7510802024168624  0.7510801474759685  0.2489197953322477  1.0000
  O   O3        1.0  0.7510802122162332  0.24891981345772227  0.24891978513056665  1.0000
  O   O4        1.0  0.24891982991030356  0.751080226371478  0.7510801838419792  1.0000
  O   O5        1.0  0.24891980604868277  0.7510802088835679  0.24891976422086673  1.0000
  O   O6        1.0  0.751080273034438  0.24891976505855637  0.7510802117967081  1.0000
