data_image0
_chemical_formula_structural       Y2TeS6
_chemical_formula_sum              "Y2 Te1 S6"
_cell_length_a       6.565849269588494
_cell_length_b       6.565849297440488
_cell_length_c       6.565849692011121
_cell_angle_alpha    59.99999909332953
_cell_angle_beta     59.999999731088515
_cell_angle_gamma    60.00000173759629

_space_group_name_H-M_alt    "P 1"
_space_group_IT_number       1

loop_
  _space_group_symop_operation_xyz
  'x, y, z'

loop_
  _atom_site_type_symbol
  _atom_site_label
  _atom_site_symmetry_multiplicity
  _atom_site_fract_x
  _atom_site_fract_y
  _atom_site_fract_z
  _atom_site_occupancy
  Y   Y1        1.0  0.24999990843615785  0.25000009942308205  0.25000001137274347  1.0000
  Y   Y2        1.0  0.7499999921321607  0.7499998934935326  0.7500000193274771  1.0000
  Te  Te1       1.0  0.9999999863575489  0.9999999776160887  0.9999999753682813  1.0000
  S   S1        1.0  0.25735357763076644  0.2573537168117252  0.7426463353461986  1.0000
  S   S2        1.0  0.7426464250091029  0.7426463339299951  0.25735370526459084  1.0000
  S   S3        1.0  0.7426463177537624  0.25735369388027846  0.25735363698354763  1.0000
  S   S4        1.0  0.2573536662176808  0.7426462598644943  0.7426463502785826  1.0000
  S   S5        1.0  0.25735376085998957  0.742646333804167  0.2573536428748617  1.0000
  S   S6        1.0  0.7426463783508038  0.25735368709234213  0.7426463108663661  1.0000
