data_image0
_chemical_formula_structural       Y2TiBr6
_chemical_formula_sum              "Y2 Ti1 Br6"
_cell_length_a       7.164386017235534
_cell_length_b       7.164386306185687
_cell_length_c       7.16438583004217
_cell_angle_alpha    60.00000626771099
_cell_angle_beta     59.999994278959015
_cell_angle_gamma    59.99999522040524

_space_group_name_H-M_alt    "P 1"
_space_group_IT_number       1

loop_
  _space_group_symop_operation_xyz
  'x, y, z'

loop_
  _atom_site_type_symbol
  _atom_site_label
  _atom_site_symmetry_multiplicity
  _atom_site_fract_x
  _atom_site_fract_y
  _atom_site_fract_z
  _atom_site_occupancy
  Y   Y1        1.0  0.24999941207538273  0.25000042749722173  0.2500001640897671  1.0000
  Y   Y2        1.0  0.7500010893987948  0.7499994003427304  0.7500000318815204  1.0000
  Ti  Ti1       1.0  3.9105982483778236e-08  0.9999999213634418  0.9999999290387348  1.0000
  Br  Br1       1.0  0.2517928728103653  0.2517931846887257  0.7482069301659786  1.0000
  Br  Br2       1.0  0.7482071355211481  0.7482068944462928  0.25179292332584524  1.0000
  Br  Br3       1.0  0.7482069930787297  0.25179312585112756  0.25179294365735594  1.0000
  Br  Br4       1.0  0.2517926806652007  0.7482069755072943  0.7482070953282294  1.0000
  Br  Br5       1.0  0.2517928177953423  0.7482069385453  0.25179309513461284  1.0000
  Br  Br6       1.0  0.7482069756239449  0.25179311323789394  0.7482068766976602  1.0000
