data_image0
_chemical_formula_structural       Y2TiO6
_chemical_formula_sum              "Y2 Ti1 O6"
_cell_length_a       5.256943851155116
_cell_length_b       5.256943907794311
_cell_length_c       5.25694395994191
_cell_angle_alpha    60.00000237876825
_cell_angle_beta     60.000001188796276
_cell_angle_gamma    60.00000012115297

_space_group_name_H-M_alt    "P 1"
_space_group_IT_number       1

loop_
  _space_group_symop_operation_xyz
  'x, y, z'

loop_
  _atom_site_type_symbol
  _atom_site_label
  _atom_site_symmetry_multiplicity
  _atom_site_fract_x
  _atom_site_fract_y
  _atom_site_fract_z
  _atom_site_occupancy
  Y   Y1        1.0  0.2499999894026883  0.24999988315378854  0.2500000647721199  1.0000
  Y   Y2        1.0  0.7500000293488943  0.7500000525108549  0.7499998005303096  1.0000
  Ti  Ti1       1.0  1.4176496052979806e-08  6.290367766984691e-08  0.9999999462419475  1.0000
  O   O1        1.0  0.2557708951026528  0.25577092992133965  0.7442290792324224  1.0000
  O   O2        1.0  0.7442291105801662  0.7442290383600302  0.2557709455959098  1.0000
  O   O3        1.0  0.7442290930367733  0.2557708649019242  0.2557709543279981  1.0000
  O   O4        1.0  0.25577090368098543  0.7442291895807844  0.7442291079720317  1.0000
  O   O5        1.0  0.25577091514537936  0.7442291011673252  0.2557708787597267  1.0000
  O   O6        1.0  0.7442290450537749  0.25577087177357705  0.744229168382917  1.0000
