data_image0
_chemical_formula_structural       Y2TiI6
_chemical_formula_sum              "Y2 Ti1 I6"
_cell_length_a       7.897110950180678
_cell_length_b       7.89711091705302
_cell_length_c       7.89711086097815
_cell_angle_alpha    60.00000037342526
_cell_angle_beta     60.000000037825885
_cell_angle_gamma    59.99999955399338

_space_group_name_H-M_alt    "P 1"
_space_group_IT_number       1

loop_
  _space_group_symop_operation_xyz
  'x, y, z'

loop_
  _atom_site_type_symbol
  _atom_site_label
  _atom_site_symmetry_multiplicity
  _atom_site_fract_x
  _atom_site_fract_y
  _atom_site_fract_z
  _atom_site_occupancy
  Y   Y1        1.0  0.24999997899459184  0.250000010944185  0.25000001219363505  1.0000
  Y   Y2        1.0  0.7500000367516487  0.75000004058694  0.7499999612929157  1.0000
  Ti  Ti1       1.0  1.849139356559121e-08  1.5508770621322072e-09  8.973152886319191e-09  1.0000
  I   I1        1.0  0.2517730744284829  0.2517730882987965  0.7482268864799466  1.0000
  I   I2        1.0  0.748226919342001  0.7482268887902261  0.251773107357244  1.0000
  I   I3        1.0  0.7482269267628294  0.2517730657775384  0.25177308905149737  1.0000
  I   I4        1.0  0.2517730417805751  0.7482269562869214  0.7482269164383748  1.0000
  I   I5        1.0  0.25177307725151704  0.7482268943930321  0.2517730810186294  1.0000
  I   I6        1.0  0.7482269232394345  0.251773062534588  0.7482269334681735  1.0000
