data_image0
_chemical_formula_structural       Y2TiCl6
_chemical_formula_sum              "Y2 Ti1 Cl6"
_cell_length_a       6.673766043340059
_cell_length_b       6.673765682918348
_cell_length_c       6.673766404680648
_cell_angle_alpha    59.99999838042414
_cell_angle_beta     60.00000113293527
_cell_angle_gamma    59.99999557585802

_space_group_name_H-M_alt    "P 1"
_space_group_IT_number       1

loop_
  _space_group_symop_operation_xyz
  'x, y, z'

loop_
  _atom_site_type_symbol
  _atom_site_label
  _atom_site_symmetry_multiplicity
  _atom_site_fract_x
  _atom_site_fract_y
  _atom_site_fract_z
  _atom_site_occupancy
  Y   Y1        1.0  0.24999992109590616  0.2499997487770808  0.25000025634890255  1.0000
  Y   Y2        1.0  0.750000314290774  0.7500006869343325  0.7499995709590936  1.0000
  Ti  Ti1       1.0  6.719927641118394e-08  0.9999999541209176  0.9999999638670314  1.0000
  Cl  Cl1       1.0  0.2538669140015893  0.25386690187208966  0.7461330362969407  1.0000
  Cl  Cl2       1.0  0.7461330006581107  0.7461330530265725  0.2538668501447357  1.0000
  Cl  Cl3       1.0  0.7461331430412271  0.2538665727471399  0.2538669468503221  1.0000
  Cl  Cl4       1.0  0.25386661369877306  0.7461333160856534  0.7461331459836024  1.0000
  Cl  Cl5       1.0  0.2538667194125857  0.7461332720599191  0.25386694027077183  1.0000
  Cl  Cl6       1.0  0.7461332843994234  0.25386651400372917  0.7461332886899166  1.0000
