data_image0
_chemical_formula_structural       Y2TiS6
_chemical_formula_sum              "Y2 Ti1 S6"
_cell_length_a       6.340781157558104
_cell_length_b       6.340781258444137
_cell_length_c       6.3407812015433835
_cell_angle_alpha    59.999999946500026
_cell_angle_beta     59.99999934313028
_cell_angle_gamma    59.99999964998433

_space_group_name_H-M_alt    "P 1"
_space_group_IT_number       1

loop_
  _space_group_symop_operation_xyz
  'x, y, z'

loop_
  _atom_site_type_symbol
  _atom_site_label
  _atom_site_symmetry_multiplicity
  _atom_site_fract_x
  _atom_site_fract_y
  _atom_site_fract_z
  _atom_site_occupancy
  Y   Y1        1.0  0.24999996500282462  0.249999979118477  0.25000005789004137  1.0000
  Y   Y2        1.0  0.7499999576033496  0.7500000609737494  0.7500000143256318  1.0000
  Ti  Ti1       1.0  3.224587854573223e-08  0.9999999961369274  0.9999999810773187  1.0000
  S   S1        1.0  0.2567430372399836  0.25674297666719115  0.7432570086419328  1.0000
  S   S2        1.0  0.7432569612262325  0.7432570325204553  0.2567430063999689  1.0000
  S   S3        1.0  0.7432570031376883  0.25674303062452536  0.2567429329148657  1.0000
  S   S4        1.0  0.25674298975485194  0.7432569843577298  0.7432570646685493  1.0000
  S   S5        1.0  0.2567430205135788  0.7432569584627519  0.25674296216819714  1.0000
  S   S6        1.0  0.7432570393735396  0.25674298118959027  0.7432569686137119  1.0000
