data_image0
_chemical_formula_structural       Y2TiF6
_chemical_formula_sum              "Y2 Ti1 F6"
_cell_length_a       5.758258959132255
_cell_length_b       5.7582586660512
_cell_length_c       5.758259832731207
_cell_angle_alpha    60.00001603240254
_cell_angle_beta     60.000012214519984
_cell_angle_gamma    60.000024373747046

_space_group_name_H-M_alt    "P 1"
_space_group_IT_number       1

loop_
  _space_group_symop_operation_xyz
  'x, y, z'

loop_
  _atom_site_type_symbol
  _atom_site_label
  _atom_site_symmetry_multiplicity
  _atom_site_fract_x
  _atom_site_fract_y
  _atom_site_fract_z
  _atom_site_occupancy
  Y   Y1        1.0  0.25000589486036884  0.24999637382608988  0.24999329252607097  1.0000
  Y   Y2        1.0  0.7500061544501769  0.749998397044794  0.7499904712620913  1.0000
  Ti  Ti1       1.0  9.613531475861083e-07  0.9999983792750934  6.050718187832096e-08  1.0000
  F   F1        1.0  0.24938333020135445  0.2493880281565359  0.7506169971558314  1.0000
  F   F2        1.0  0.7506099401354547  0.7506177559877012  0.24938837185000454  1.0000
  F   F3        1.0  0.750613548567274  0.24938436092501973  0.249387515299663  1.0000
  F   F4        1.0  0.249386575571853  0.7506135493035087  0.7506139787570885  1.0000
  F   F5        1.0  0.24938393979742315  0.7506158774707461  0.24938944596456158  1.0000
  F   F6        1.0  0.7506099117597113  0.2493869778836122  0.7506197469318091  1.0000
