data_image0
_chemical_formula_structural       Y2VBr6
_chemical_formula_sum              "Y2 V1 Br6"
_cell_length_a       7.139418568001194
_cell_length_b       7.1394190687237975
_cell_length_c       7.139418496951035
_cell_angle_alpha    60.0000017185029
_cell_angle_beta     59.999999966304806
_cell_angle_gamma    60.000002115859076

_space_group_name_H-M_alt    "P 1"
_space_group_IT_number       1

loop_
  _space_group_symop_operation_xyz
  'x, y, z'

loop_
  _atom_site_type_symbol
  _atom_site_label
  _atom_site_symmetry_multiplicity
  _atom_site_fract_x
  _atom_site_fract_y
  _atom_site_fract_z
  _atom_site_occupancy
  Y   Y1        1.0  0.25000008706007826  0.24999989163127154  0.24999994819468338  1.0000
  Y   Y2        1.0  0.7499997524406515  0.7500000608742191  0.750000176293778  1.0000
  V   V1        1.0  4.100580660287875e-08  0.9999999982845316  0.9999999831561794  1.0000
  Br  Br1       1.0  0.25065426770061394  0.25065414270300485  0.7493458165861411  1.0000
  Br  Br2       1.0  0.7493457163981981  0.7493458321035767  0.2506541656244128  1.0000
  Br  Br3       1.0  0.7493458114781402  0.25065412326864434  0.2506542651846743  1.0000
  Br  Br4       1.0  0.25065428413719  0.7493458275213778  0.7493457531143347  1.0000
  Br  Br5       1.0  0.2506542811020081  0.7493458372456966  0.25065418665149664  1.0000
  Br  Br6       1.0  0.7493457454377014  0.2506542868066424  0.7493457039177515  1.0000
