data_image0
_chemical_formula_structural       Y2VCl6
_chemical_formula_sum              "Y2 V1 Cl6"
_cell_length_a       6.792934737690381
_cell_length_b       6.79293476405094
_cell_length_c       6.79293448021942
_cell_angle_alpha    60.00000163917133
_cell_angle_beta     59.999998902917696
_cell_angle_gamma    60.000001574051396

_space_group_name_H-M_alt    "P 1"
_space_group_IT_number       1

loop_
  _space_group_symop_operation_xyz
  'x, y, z'

loop_
  _atom_site_type_symbol
  _atom_site_label
  _atom_site_symmetry_multiplicity
  _atom_site_fract_x
  _atom_site_fract_y
  _atom_site_fract_z
  _atom_site_occupancy
  Y   Y1        1.0  0.24999959240077668  0.2500004401374055  0.2500000018403613  1.0000
  Y   Y2        1.0  0.7500001267614845  0.7499996328335766  0.7500004512889524  1.0000
  V   V1        1.0  1.1241436355012065e-07  0.9999999585317211  0.9999998776720033  1.0000
  Cl  Cl1       1.0  0.24942658354117053  0.2494267684501105  0.7505732861662501  1.0000
  Cl  Cl2       1.0  0.7505733494434794  0.7505732342050905  0.24942659027333844  1.0000
  Cl  Cl3       1.0  0.7505734201282083  0.24942686060294436  0.24942652605210494  1.0000
  Cl  Cl4       1.0  0.24942665701709946  0.7505731889294446  0.7505733947197526  1.0000
  Cl  Cl5       1.0  0.24942676986354154  0.7505731613819245  0.2494266768133778  1.0000
  Cl  Cl6       1.0  0.7505733965522186  0.2494267529278156  0.750573188912331  1.0000
