data_image0
_chemical_formula_structural       Y2VF6
_chemical_formula_sum              "Y2 V1 F6"
_cell_length_a       5.839218197983984
_cell_length_b       5.839142339615085
_cell_length_c       5.839189475527422
_cell_angle_alpha    59.99989048312645
_cell_angle_beta     59.999993855386094
_cell_angle_gamma    59.99980470575801

_space_group_name_H-M_alt    "P 1"
_space_group_IT_number       1

loop_
  _space_group_symop_operation_xyz
  'x, y, z'

loop_
  _atom_site_type_symbol
  _atom_site_label
  _atom_site_symmetry_multiplicity
  _atom_site_fract_x
  _atom_site_fract_y
  _atom_site_fract_z
  _atom_site_occupancy
  Y   Y1        1.0  0.250024910041503  0.2500119627955936  0.25000311057637054  1.0000
  Y   Y2        1.0  0.7500250256439642  0.7500575132353767  0.7499736181537093  1.0000
  V   V1        1.0  1.6082708253504596e-07  0.9999998615779345  4.7052051289981346e-06  1.0000
  F   F1        1.0  0.24658178636579187  0.24656638389747487  0.753411680176624  1.0000
  F   F2        1.0  0.7534148513339454  0.7534280483302949  0.24657020609925015  1.0000
  F   F3        1.0  0.7534077576869201  0.24655743105546662  0.24659675502786513  1.0000
  F   F4        1.0  0.24655228408281096  0.7534313904013505  0.7534134376930066  1.0000
  F   F5        1.0  0.24656667576778596  0.7534147518314003  0.24659579585393085  1.0000
  F   F6        1.0  0.7534267113261145  0.24653392183407313  0.7534308255031782  1.0000
