data_image0
_chemical_formula_structural       Y2VI6
_chemical_formula_sum              "Y2 V1 I6"
_cell_length_a       7.780446065563649
_cell_length_b       7.78044613832275
_cell_length_c       7.780446051563757
_cell_angle_alpha    60.0000008324168
_cell_angle_beta     59.999998260483714
_cell_angle_gamma    59.999998786838965

_space_group_name_H-M_alt    "P 1"
_space_group_IT_number       1

loop_
  _space_group_symop_operation_xyz
  'x, y, z'

loop_
  _atom_site_type_symbol
  _atom_site_label
  _atom_site_symmetry_multiplicity
  _atom_site_fract_x
  _atom_site_fract_y
  _atom_site_fract_z
  _atom_site_occupancy
  Y   Y1        1.0  0.2499999884555898  0.2499999846553464  0.25000003845417396  1.0000
  Y   Y2        1.0  0.7499998805309023  0.7500000704518006  0.7499999131729398  1.0000
  V   V1        1.0  0.9999999918901539  0.999999984258681  1.192558265673937e-08  1.0000
  I   I1        1.0  0.2498734463046918  0.24987333760375813  0.7501265898995437  1.0000
  I   I2        1.0  0.7501265735667773  0.7501266655570344  0.24987344464141195  1.0000
  I   I3        1.0  0.7501266442986748  0.24987336546911643  0.2498733981051533  1.0000
  I   I4        1.0  0.2498734484149001  0.750126579448794  0.7501266317067361  1.0000
  I   I5        1.0  0.24987339146381465  0.7501266127725357  0.24987338243421103  1.0000
  I   I6        1.0  0.7501266321552104  0.24987340140717954  0.7501265868862044  1.0000
