data_image0
_chemical_formula_structural       Y2VO6
_chemical_formula_sum              "Y2 V1 O6"
_cell_length_a       5.203709796783864
_cell_length_b       5.203709846485041
_cell_length_c       5.2037098217403415
_cell_angle_alpha    60.00000124707837
_cell_angle_beta     60.000001216548114
_cell_angle_gamma    59.99999792088508

_space_group_name_H-M_alt    "P 1"
_space_group_IT_number       1

loop_
  _space_group_symop_operation_xyz
  'x, y, z'

loop_
  _atom_site_type_symbol
  _atom_site_label
  _atom_site_symmetry_multiplicity
  _atom_site_fract_x
  _atom_site_fract_y
  _atom_site_fract_z
  _atom_site_occupancy
  Y   Y1        1.0  0.25000017904515964  0.24999997681890898  0.24999988428047296  1.0000
  Y   Y2        1.0  0.749999981890563  0.7500001116839052  0.7499998994231669  1.0000
  V   V1        1.0  0.9999999537818255  1.8828796737934935e-08  0.9999999368264515  1.0000
  O   O1        1.0  0.25351751827685665  0.2535173899506508  0.7464825310575286  1.0000
  O   O2        1.0  0.7464825489919509  0.7464826067617887  0.25351749334611073  1.0000
  O   O3        1.0  0.7464825160321442  0.25351741107831094  0.2535175509793016  1.0000
  O   O4        1.0  0.2535173611645411  0.7464826232917265  0.746482528492833  1.0000
  O   O5        1.0  0.2535174505917181  0.7464825209121658  0.25351752003241723  1.0000
  O   O6        1.0  0.7464825007087145  0.25351735105950624  0.7464826112738496  1.0000
