data_image0
_chemical_formula_structural       Y2VSe6
_chemical_formula_sum              "Y2 V1 Se6"
_cell_length_a       6.617156626277828
_cell_length_b       6.617156445677102
_cell_length_c       6.617156584120199
_cell_angle_alpha    60.00000026987166
_cell_angle_beta     59.99999980313056
_cell_angle_gamma    60.0000009566097

_space_group_name_H-M_alt    "P 1"
_space_group_IT_number       1

loop_
  _space_group_symop_operation_xyz
  'x, y, z'

loop_
  _atom_site_type_symbol
  _atom_site_label
  _atom_site_symmetry_multiplicity
  _atom_site_fract_x
  _atom_site_fract_y
  _atom_site_fract_z
  _atom_site_occupancy
  Y   Y1        1.0  0.25000002967330515  0.2499997545297208  0.25000010258962385  1.0000
  Y   Y2        1.0  0.7500000054768343  0.7499999539609856  0.750000238594089  1.0000
  V   V1        1.0  0.9999999818270917  7.40345118145023e-09  2.805307543223754e-08  1.0000
  Se  Se1       1.0  0.25481081198617817  0.2548107714084175  0.7451891588771977  1.0000
  Se  Se2       1.0  0.7451891220348387  0.7451893294651944  0.2548106467840627  1.0000
  Se  Se3       1.0  0.7451892522620176  0.25481088111573064  0.2548107275809703  1.0000
  Se  Se4       1.0  0.2548107657311896  0.7451892086527072  0.7451891534772922  1.0000
  Se  Se5       1.0  0.2548108457133188  0.7451892469705025  0.25481079985155647  1.0000
  Se  Se6       1.0  0.7451891967100297  0.2548108427979369  0.745189150597683  1.0000
