data_image0
_chemical_formula_structural       Y2VS6
_chemical_formula_sum              "Y2 V1 S6"
_cell_length_a       6.290776338522584
_cell_length_b       6.290776252444131
_cell_length_c       6.2907762298083565
_cell_angle_alpha    59.99999921501249
_cell_angle_beta     59.99999971775161
_cell_angle_gamma    59.9999990227557

_space_group_name_H-M_alt    "P 1"
_space_group_IT_number       1

loop_
  _space_group_symop_operation_xyz
  'x, y, z'

loop_
  _atom_site_type_symbol
  _atom_site_label
  _atom_site_symmetry_multiplicity
  _atom_site_fract_x
  _atom_site_fract_y
  _atom_site_fract_z
  _atom_site_occupancy
  Y   Y1        1.0  0.25000001104243547  0.24999995653315588  0.24999998508753565  1.0000
  Y   Y2        1.0  0.7499999793555914  0.7500000584477889  0.7499999783331528  1.0000
  V   V1        1.0  1.6742597319210157e-08  0.9999999883186602  2.9261950162395643e-08  1.0000
  S   S1        1.0  0.25370992612522675  0.2537099990005886  0.7462900404553889  1.0000
  S   S2        1.0  0.7462899949483496  0.7462900257148057  0.2537100020387979  1.0000
  S   S3        1.0  0.7462901326241684  0.25370991527482667  0.2537098944436399  1.0000
  S   S4        1.0  0.2537099699648156  0.7462900880247783  0.7462900298496422  1.0000
  S   S5        1.0  0.25370995990577616  0.7462900428111368  0.253709939102977  1.0000
  S   S6        1.0  0.7462900100976665  0.25370995075401864  0.7462900786051068  1.0000
