data_image0
_chemical_formula_structural       Y2VTe6
_chemical_formula_sum              "Y2 V1 Te6"
_cell_length_a       7.140673407333886
_cell_length_b       7.140673309616851
_cell_length_c       7.140673161102912
_cell_angle_alpha    60.00000047968971
_cell_angle_beta     59.999998910659954
_cell_angle_gamma    59.99999912548763

_space_group_name_H-M_alt    "P 1"
_space_group_IT_number       1

loop_
  _space_group_symop_operation_xyz
  'x, y, z'

loop_
  _atom_site_type_symbol
  _atom_site_label
  _atom_site_symmetry_multiplicity
  _atom_site_fract_x
  _atom_site_fract_y
  _atom_site_fract_z
  _atom_site_occupancy
  Y   Y1        1.0  0.24999998192920042  0.2499999548499623  0.2500001095515234  1.0000
  Y   Y2        1.0  0.7499999419283592  0.7500001235401325  0.7499998019670334  1.0000
  V   V1        1.0  1.4472414874037565e-08  0.9999999759876589  0.9999999865643964  1.0000
  Te  Te1       1.0  0.2581113283111624  0.2581112802552269  0.7418887076110839  1.0000
  Te  Te2       1.0  0.7418887393540481  0.7418886626366584  0.2581113608019917  1.0000
  Te  Te3       1.0  0.741888685390001  0.2581112749137402  0.2581113457248515  1.0000
  Te  Te4       1.0  0.25811129880662675  0.7418887485910043  0.74188868350367  1.0000
  Te  Te5       1.0  0.2581113224013153  0.7418886667590986  0.2581112938744866  1.0000
  Te  Te6       1.0  0.7418886874078998  0.25811131386646535  0.7418887103770544  1.0000
