data_image0
_chemical_formula_structural       Y2WBr6
_chemical_formula_sum              "Y2 W1 Br6"
_cell_length_a       7.161516229022373
_cell_length_b       7.161516068537977
_cell_length_c       7.161515842502659
_cell_angle_alpha    60.000004083792525
_cell_angle_beta     60.00000164021343
_cell_angle_gamma    60.00000404025935

_space_group_name_H-M_alt    "P 1"
_space_group_IT_number       1

loop_
  _space_group_symop_operation_xyz
  'x, y, z'

loop_
  _atom_site_type_symbol
  _atom_site_label
  _atom_site_symmetry_multiplicity
  _atom_site_fract_x
  _atom_site_fract_y
  _atom_site_fract_z
  _atom_site_occupancy
  Y   Y1        1.0  0.25000015169862105  0.2500004701078909  0.24999961898789214  1.0000
  Y   Y2        1.0  0.749999830201546  0.7500001892584859  0.750000179300194  1.0000
  W   W1        1.0  3.485458782341282e-08  0.9999999196217628  9.537214878887456e-08  1.0000
  Br  Br1       1.0  0.2545486692542806  0.2545484527459535  0.7454514442188216  1.0000
  Br  Br2       1.0  0.745451398196836  0.7454513840260812  0.25454844192410475  1.0000
  Br  Br3       1.0  0.7454512469074832  0.25454865761624146  0.2545487333601305  1.0000
  Br  Br4       1.0  0.2545485937696933  0.7454511774456185  0.7454514331907918  1.0000
  Br  Br5       1.0  0.25454876635438906  0.7454512132758014  0.2545485875364477  1.0000
  Br  Br6       1.0  0.7454513130037065  0.25454853456712095  0.7454514613929089  1.0000
