data_image0
_chemical_formula_structural       Y2WCl6
_chemical_formula_sum              "Y2 W1 Cl6"
_cell_length_a       6.697879093198474
_cell_length_b       6.697878763774323
_cell_length_c       6.697879032914947
_cell_angle_alpha    59.99999671981299
_cell_angle_beta     60.00000052876661
_cell_angle_gamma    59.99999608434103

_space_group_name_H-M_alt    "P 1"
_space_group_IT_number       1

loop_
  _space_group_symop_operation_xyz
  'x, y, z'

loop_
  _atom_site_type_symbol
  _atom_site_label
  _atom_site_symmetry_multiplicity
  _atom_site_fract_x
  _atom_site_fract_y
  _atom_site_fract_z
  _atom_site_occupancy
  Y   Y1        1.0  0.2500000119691221  0.249999708117209  0.2499999924142246  1.0000
  Y   Y2        1.0  0.7500002833145192  0.7499997113182307  0.7499999124061341  1.0000
  W   W1        1.0  0.9999999873554267  1.2068472389989905e-07  0.9999999952492511  1.0000
  Cl  Cl1       1.0  0.25617118328096894  0.25617123722882346  0.7438288800397584  1.0000
  Cl  Cl2       1.0  0.7438287326789754  0.7438289684858825  0.2561711766391699  1.0000
  Cl  Cl3       1.0  0.7438287654488923  0.25617121963599054  0.25617117873601514  1.0000
  Cl  Cl4       1.0  0.2561711124461265  0.7438288727082207  0.7438287983875908  1.0000
  Cl  Cl5       1.0  0.2561711073646817  0.7438288948905241  0.2561712561688492  1.0000
  Cl  Cl6       1.0  0.7438288225275634  0.2561712431675934  0.7438288363302837  1.0000
