data_image0
_chemical_formula_structural       Y2WF6
_chemical_formula_sum              "Y2 W1 F6"
_cell_length_a       5.753935668221992
_cell_length_b       5.7539343033987445
_cell_length_c       5.753934602503417
_cell_angle_alpha    59.999998598032
_cell_angle_beta     60.000000002795105
_cell_angle_gamma    59.9999983289878

_space_group_name_H-M_alt    "P 1"
_space_group_IT_number       1

loop_
  _space_group_symop_operation_xyz
  'x, y, z'

loop_
  _atom_site_type_symbol
  _atom_site_label
  _atom_site_symmetry_multiplicity
  _atom_site_fract_x
  _atom_site_fract_y
  _atom_site_fract_z
  _atom_site_occupancy
  Y   Y1        1.0  0.25000137040596326  0.24999979589913834  0.2499995186254033  1.0000
  Y   Y2        1.0  0.7500023938065712  0.7499990854454327  0.7499999480550028  1.0000
  W   W1        1.0  2.3928889061462895e-09  0.9999999446580967  3.3426271762567114e-08  1.0000
  F   F1        1.0  0.2527562411297517  0.2527578667834562  0.747242692942924  1.0000
  F   F2        1.0  0.7472427425020322  0.7472431047820504  0.25275689714495325  1.0000
  F   F3        1.0  0.7472421464743941  0.25275755957193174  0.2527566924908921  1.0000
  F   F4        1.0  0.25275605674511353  0.7472428032325937  0.747243020400994  1.0000
  F   F5        1.0  0.25275647143653435  0.747242975191702  0.2527578334236168  1.0000
  F   F6        1.0  0.7472426164868601  0.25275687676455727  0.7472433783433795  1.0000
