data_image0
_chemical_formula_structural       Y2WI6
_chemical_formula_sum              "Y2 W1 I6"
_cell_length_a       7.880309453694126
_cell_length_b       7.880309428127883
_cell_length_c       7.880309373114718
_cell_angle_alpha    59.9999997704985
_cell_angle_beta     59.99999992361775
_cell_angle_gamma    59.9999989482729

_space_group_name_H-M_alt    "P 1"
_space_group_IT_number       1

loop_
  _space_group_symop_operation_xyz
  'x, y, z'

loop_
  _atom_site_type_symbol
  _atom_site_label
  _atom_site_symmetry_multiplicity
  _atom_site_fract_x
  _atom_site_fract_y
  _atom_site_fract_z
  _atom_site_occupancy
  Y   Y1        1.0  0.2499999465924344  0.2500000724510582  0.2500000159104832  1.0000
  Y   Y2        1.0  0.7499999606175967  0.7499999251666305  0.7500000026990474  1.0000
  W   W1        1.0  2.101698919490939e-08  2.4866939505555983e-08  1.7665578278851067e-08  1.0000
  I   I1        1.0  0.2509872872612127  0.25098729900669997  0.7490127276526674  1.0000
  I   I2        1.0  0.7490126685703236  0.7490126846233345  0.25098733582023747  1.0000
  I   I3        1.0  0.7490127231731222  0.25098730743466396  0.2509872650701594  1.0000
  I   I4        1.0  0.25098735281288953  0.7490126761953694  0.7490126723382509  1.0000
  I   I5        1.0  0.250987312652014  0.749012684231286  0.25098730460177027  1.0000
  I   I6        1.0  0.7490127227195655  0.2509873289282388  0.7490126586528817  1.0000
