data_image0
_chemical_formula_structural       Y2WO6
_chemical_formula_sum              "Y2 W1 O6"
_cell_length_a       5.3995850223354935
_cell_length_b       5.399585120344766
_cell_length_c       5.399585117213308
_cell_angle_alpha    59.99999863163102
_cell_angle_beta     59.99999935000801
_cell_angle_gamma    59.99999826961344

_space_group_name_H-M_alt    "P 1"
_space_group_IT_number       1

loop_
  _space_group_symop_operation_xyz
  'x, y, z'

loop_
  _atom_site_type_symbol
  _atom_site_label
  _atom_site_symmetry_multiplicity
  _atom_site_fract_x
  _atom_site_fract_y
  _atom_site_fract_z
  _atom_site_occupancy
  Y   Y1        1.0  0.24999999871027825  0.24999992106191848  0.25000002650850567  1.0000
  Y   Y2        1.0  0.7499999432463846  0.750000069395503  0.7500000862064433  1.0000
  W   W1        1.0  4.931519188847689e-08  0.9999999931953376  1.9488606405983815e-08  1.0000
  O   O1        1.0  0.25181854922258806  0.2518184657823856  0.7481814902421143  1.0000
  O   O2        1.0  0.7481814695903053  0.7481815314796983  0.2518184269268743  1.0000
  O   O3        1.0  0.7481814694320882  0.25181849667843853  0.2518184892013377  1.0000
  O   O4        1.0  0.2518184841880705  0.7481815550209343  0.7481814777932325  1.0000
  O   O5        1.0  0.2518185544663369  0.748181499189451  0.25181850344928414  1.0000
  O   O6        1.0  0.7481814769403625  0.2518184731222077  0.7481814791618266  1.0000
