data_image0
_chemical_formula_structural       Y2WS6
_chemical_formula_sum              "Y2 W1 S6"
_cell_length_a       6.420117532210283
_cell_length_b       6.420117724896324
_cell_length_c       6.420117717675071
_cell_angle_alpha    59.9999996663829
_cell_angle_beta     59.99999858185343
_cell_angle_gamma    59.999999665778034

_space_group_name_H-M_alt    "P 1"
_space_group_IT_number       1

loop_
  _space_group_symop_operation_xyz
  'x, y, z'

loop_
  _atom_site_type_symbol
  _atom_site_label
  _atom_site_symmetry_multiplicity
  _atom_site_fract_x
  _atom_site_fract_y
  _atom_site_fract_z
  _atom_site_occupancy
  Y   Y1        1.0  0.2500000243826903  0.2500000427594732  0.24999989650088297  1.0000
  Y   Y2        1.0  0.7499999838027104  0.7500000348027216  0.7499998323141054  1.0000
  W   W1        1.0  9.956023060064564e-09  0.9999999809233268  5.907645947513047e-08  1.0000
  S   S1        1.0  0.25668334809998034  0.25668325632471906  0.7433167167820075  1.0000
  S   S2        1.0  0.743316638995187  0.7433167010544346  0.2566833661535169  1.0000
  S   S3        1.0  0.7433167125622743  0.25668326028714705  0.256683392655002  1.0000
  S   S4        1.0  0.2566833751809285  0.7433166379543193  0.7433167069078404  1.0000
  S   S5        1.0  0.2566832806543652  0.7433166639491421  0.2566833681751567  1.0000
  S   S6        1.0  0.7433166351682757  0.25668341552072  0.7433166550839925  1.0000
