data_image0
_chemical_formula_structural       Y2WSe6
_chemical_formula_sum              "Y2 W1 Se6"
_cell_length_a       6.76878460529104
_cell_length_b       6.768784461687834
_cell_length_c       6.768784210338758
_cell_angle_alpha    59.99999909810197
_cell_angle_beta     59.99999926705866
_cell_angle_gamma    59.999999764992765

_space_group_name_H-M_alt    "P 1"
_space_group_IT_number       1

loop_
  _space_group_symop_operation_xyz
  'x, y, z'

loop_
  _atom_site_type_symbol
  _atom_site_label
  _atom_site_symmetry_multiplicity
  _atom_site_fract_x
  _atom_site_fract_y
  _atom_site_fract_z
  _atom_site_occupancy
  Y   Y1        1.0  0.2499999015899467  0.24999992622777334  0.2500001427526053  1.0000
  Y   Y2        1.0  0.7500000032850559  0.7499999885739016  0.7499998815356105  1.0000
  W   W1        1.0  1.1338308362612976e-08  1.809402722692924e-09  0.9999999136481541  1.0000
  Se  Se1       1.0  0.2564054920420967  0.25640545751657334  0.7435945350878982  1.0000
  Se  Se2       1.0  0.7435945396386113  0.7435945169953502  0.25640556288516836  1.0000
  Se  Se3       1.0  0.7435944849968805  0.2564055425573852  0.2564054471824628  1.0000
  Se  Se4       1.0  0.2564054911777631  0.7435946291793036  0.7435944942437805  1.0000
  Se  Se5       1.0  0.25640549653895256  0.743594473195709  0.2564054913505023  1.0000
  Se  Se6       1.0  0.7435945813228347  0.2564054651281856  0.7435945307122698  1.0000
