data_image0
_chemical_formula_structural       Y2ZrO6
_chemical_formula_sum              "Y2 Zr1 O6"
_cell_length_a       5.379990804649953
_cell_length_b       5.379990611989974
_cell_length_c       5.379990541110841
_cell_angle_alpha    60.000002882854425
_cell_angle_beta     60.00000226727092
_cell_angle_gamma    60.000001924071626

_space_group_name_H-M_alt    "P 1"
_space_group_IT_number       1

loop_
  _space_group_symop_operation_xyz
  'x, y, z'

loop_
  _atom_site_type_symbol
  _atom_site_label
  _atom_site_symmetry_multiplicity
  _atom_site_fract_x
  _atom_site_fract_y
  _atom_site_fract_z
  _atom_site_occupancy
  Y   Y1        1.0  0.24999998714118812  0.24999994729465197  0.2500000217957249  1.0000
  Y   Y2        1.0  0.7499999787202224  0.7500000604261682  0.7499999939362268  1.0000
  Zr  Zr1       1.0  7.588271463110322e-10  0.9999999977235181  0.9999999784539554  1.0000
  O   O1        1.0  0.2651968251589623  0.2651967639379486  0.734803202152243  1.0000
  O   O2        1.0  0.7348032600278447  0.7348032141886152  0.26519678544279274  1.0000
  O   O3        1.0  0.7348032438478557  0.2651967685387048  0.26519682533528255  1.0000
  O   O4        1.0  0.2651967475086122  0.7348032528410039  0.734803183830872  1.0000
  O   O5        1.0  0.2651967312593909  0.7348032022616758  0.26519682468848843  1.0000
  O   O6        1.0  0.7348032385263491  0.2651967872472924  0.7348031591536983  1.0000
