data_image0
_chemical_formula_structural       Y2ZrS6
_chemical_formula_sum              "Y2 Zr1 S6"
_cell_length_a       6.449341408592651
_cell_length_b       6.449341374222985
_cell_length_c       6.449341510050149
_cell_angle_alpha    59.99999985808835
_cell_angle_beta     59.99999933425918
_cell_angle_gamma    59.999999255538796

_space_group_name_H-M_alt    "P 1"
_space_group_IT_number       1

loop_
  _space_group_symop_operation_xyz
  'x, y, z'

loop_
  _atom_site_type_symbol
  _atom_site_label
  _atom_site_symmetry_multiplicity
  _atom_site_fract_x
  _atom_site_fract_y
  _atom_site_fract_z
  _atom_site_occupancy
  Y   Y1        1.0  0.24999997637764798  0.24999994869852304  0.25000009017486075  1.0000
  Y   Y2        1.0  0.7499999570720592  0.7499999771281678  0.750000127466344  1.0000
  Zr  Zr1       1.0  3.3602113998258377e-08  0.9999999905048848  1.1199017208786805e-07  1.0000
  S   S1        1.0  0.2646573998613534  0.26465733645561534  0.7353426342031851  1.0000
  S   S2        1.0  0.7353425949310044  0.7353426900193022  0.2646572853661562  1.0000
  S   S3        1.0  0.7353426858233417  0.264657396881746  0.2646573324680101  1.0000
  S   S4        1.0  0.26465738597554783  0.735342597309777  0.7353425755935835  1.0000
  S   S5        1.0  0.26465734259568263  0.7353427080325154  0.2646572719190715  1.0000
  S   S6        1.0  0.735342636371482  0.2646573659179811  0.7353425651516036  1.0000
