data_image0
_chemical_formula_structural       Y2ZrF6
_chemical_formula_sum              "Y2 Zr1 F6"
_cell_length_a       5.809690529070868
_cell_length_b       5.809690152163096
_cell_length_c       5.809690109721974
_cell_angle_alpha    60.00000710579873
_cell_angle_beta     60.00000475239421
_cell_angle_gamma    60.000001982826404

_space_group_name_H-M_alt    "P 1"
_space_group_IT_number       1

loop_
  _space_group_symop_operation_xyz
  'x, y, z'

loop_
  _atom_site_type_symbol
  _atom_site_label
  _atom_site_symmetry_multiplicity
  _atom_site_fract_x
  _atom_site_fract_y
  _atom_site_fract_z
  _atom_site_occupancy
  Y   Y1        1.0  0.2500003446723369  0.24999925091088  0.249999313424417  1.0000
  Y   Y2        1.0  0.74999929530582  0.7499997132722487  0.7500000962614347  1.0000
  Zr  Zr1       1.0  0.9999999503528192  0.9999999283243577  0.9999999436155771  1.0000
  F   F1        1.0  0.26373459018721035  0.2637346156728811  0.7362654654290391  1.0000
  F   F2        1.0  0.7362651914258735  0.7362656766177157  0.2637348979439081  1.0000
  F   F3        1.0  0.7362655789302094  0.2637346683858429  0.2637346336403914  1.0000
  F   F4        1.0  0.26373533448324893  0.7362652992562781  0.7362654001708847  1.0000
  F   F5        1.0  0.26373454667513146  0.736265840114325  0.26373464710123296  1.0000
  F   F6        1.0  0.7362651601654469  0.26373496866247087  0.7362655677079056  1.0000
