data_image0
_chemical_formula_structural       Y2ZrI6
_chemical_formula_sum              "Y2 Zr1 I6"
_cell_length_a       8.03335733279649
_cell_length_b       8.033357447791175
_cell_length_c       8.033357298915579
_cell_angle_alpha    60.00000030548863
_cell_angle_beta     60.00000058189828
_cell_angle_gamma    60.0000007947631

_space_group_name_H-M_alt    "P 1"
_space_group_IT_number       1

loop_
  _space_group_symop_operation_xyz
  'x, y, z'

loop_
  _atom_site_type_symbol
  _atom_site_label
  _atom_site_symmetry_multiplicity
  _atom_site_fract_x
  _atom_site_fract_y
  _atom_site_fract_z
  _atom_site_occupancy
  Y   Y1        1.0  0.24999997805416144  0.2499999873642924  0.24999996035177802  1.0000
  Y   Y2        1.0  0.7499999667713586  0.7500000108792475  0.7500000146310506  1.0000
  Zr  Zr1       1.0  4.486530565753809e-09  0.9999999908525553  2.7226648376766945e-08  1.0000
  I   I1        1.0  0.254200009602501  0.25420002329654945  0.7458000013718282  1.0000
  I   I2        1.0  0.7457999852698232  0.745799988668157  0.25420003757735155  1.0000
  I   I3        1.0  0.7457999912924465  0.25420003390526497  0.25419999990427955  1.0000
  I   I4        1.0  0.2542000384108592  0.7457999856823123  0.7457999518430672  1.0000
  I   I5        1.0  0.25420001896759586  0.7457999943163454  0.2542000329503898  1.0000
  I   I6        1.0  0.7458000085584799  0.25419998868145366  0.7457999680558907  1.0000
