data_image0
_chemical_formula_structural       Y2ZrBr6
_chemical_formula_sum              "Y2 Zr1 Br6"
_cell_length_a       7.393006790528491
_cell_length_b       7.393006703418238
_cell_length_c       7.393006999612114
_cell_angle_alpha    60.00000146710375
_cell_angle_beta     59.99999852686425
_cell_angle_gamma    60.000000201565946

_space_group_name_H-M_alt    "P 1"
_space_group_IT_number       1

loop_
  _space_group_symop_operation_xyz
  'x, y, z'

loop_
  _atom_site_type_symbol
  _atom_site_label
  _atom_site_symmetry_multiplicity
  _atom_site_fract_x
  _atom_site_fract_y
  _atom_site_fract_z
  _atom_site_occupancy
  Y   Y1        1.0  0.2500001267020004  0.2499999537674982  0.2499999248254117  1.0000
  Y   Y2        1.0  0.7500001848191773  0.7500001097964175  0.7499995855571413  1.0000
  Zr  Zr1       1.0  0.9999999295745807  0.99999992545182  2.3792133231734978e-08  1.0000
  Br  Br1       1.0  0.2529440219479172  0.25294415648772683  0.7470559192028918  1.0000
  Br  Br2       1.0  0.747055929376658  0.7470559849376317  0.2529440772677886  1.0000
  Br  Br3       1.0  0.7470558142117621  0.2529440565377782  0.2529442681566054  1.0000
  Br  Br4       1.0  0.252943975751759  0.7470559738936305  0.7470560011071634  1.0000
  Br  Br5       1.0  0.2529441059146408  0.7470559241160014  0.2529441387301848  1.0000
  Br  Br6       1.0  0.7470559105245852  0.252943942309413  0.747056051956689  1.0000
