data_image0
_chemical_formula_structural       Y2ZrTe6
_chemical_formula_sum              "Y2 Zr1 Te6"
_cell_length_a       7.361991731084568
_cell_length_b       7.3619917577882354
_cell_length_c       7.361991587092373
_cell_angle_alpha    60.00000070555905
_cell_angle_beta     60.00000058105294
_cell_angle_gamma    60.00000094587898

_space_group_name_H-M_alt    "P 1"
_space_group_IT_number       1

loop_
  _space_group_symop_operation_xyz
  'x, y, z'

loop_
  _atom_site_type_symbol
  _atom_site_label
  _atom_site_symmetry_multiplicity
  _atom_site_fract_x
  _atom_site_fract_y
  _atom_site_fract_z
  _atom_site_occupancy
  Y   Y1        1.0  0.2499999339117725  0.25000008937660084  0.25000001751667467  1.0000
  Y   Y2        1.0  0.7500000447410814  0.749999972008058  0.7500000356415154  1.0000
  Zr  Zr1       1.0  4.485204760076831e-08  0.9999999783731311  0.999999950354224  1.0000
  Te  Te1       1.0  0.2651771457513223  0.2651771604944236  0.7348228633167365  1.0000
  Te  Te2       1.0  0.7348228623870348  0.734822807728338  0.2651771673465269  1.0000
  Te  Te3       1.0  0.7348228550462738  0.26517714628605493  0.2651771745256681  1.0000
  Te  Te4       1.0  0.2651771516024405  0.734822845227181  0.7348228262205864  1.0000
  Te  Te5       1.0  0.26517713487688177  0.7348228304647536  0.26517716129550434  1.0000
  Te  Te6       1.0  0.7348228271100713  0.26517717269371927  0.7348228070592008  1.0000
