data_image0
_chemical_formula_structural       Y2ZrCl6
_chemical_formula_sum              "Y2 Zr1 Cl6"
_cell_length_a       7.148735297473799
_cell_length_b       7.148734990973505
_cell_length_c       7.148734219249473
_cell_angle_alpha    60.00001038842664
_cell_angle_beta     60.00000435159552
_cell_angle_gamma    60.00000913684618

_space_group_name_H-M_alt    "P 1"
_space_group_IT_number       1

loop_
  _space_group_symop_operation_xyz
  'x, y, z'

loop_
  _atom_site_type_symbol
  _atom_site_label
  _atom_site_symmetry_multiplicity
  _atom_site_fract_x
  _atom_site_fract_y
  _atom_site_fract_z
  _atom_site_occupancy
  Y   Y1        1.0  0.24999969526695276  0.2500002244906043  0.2499999483345787  1.0000
  Y   Y2        1.0  0.7500000733442688  0.7499994262384345  0.7500006253134547  1.0000
  Zr  Zr1       1.0  0.9999999377890443  0.9999999588824112  6.425391182829937e-08  1.0000
  Cl  Cl1       1.0  0.2523986407802755  0.25239882976012756  0.7476011801019153  1.0000
  Cl  Cl2       1.0  0.747601379138249  0.747600997431855  0.2523986117282922  1.0000
  Cl  Cl3       1.0  0.7476010898019316  0.25239917471689755  0.25239851094684124  1.0000
  Cl  Cl4       1.0  0.25239937014508246  0.7476009557173299  0.7476011680350851  1.0000
  Cl  Cl5       1.0  0.25239879780538493  0.7476013497008354  0.25239871905370465  1.0000
  Cl  Cl6       1.0  0.7476010741031969  0.25239909596819826  0.7476010753473183  1.0000
