data_image0
_chemical_formula_structural       Zn2AsCl6
_chemical_formula_sum              "Zn2 As1 Cl6"
_cell_length_a       7.136864597414694
_cell_length_b       7.136864260183992
_cell_length_c       7.1368648759327264
_cell_angle_alpha    60.00000181772869
_cell_angle_beta     60.00000224416224
_cell_angle_gamma    60.00000275285587

_space_group_name_H-M_alt    "P 1"
_space_group_IT_number       1

loop_
  _space_group_symop_operation_xyz
  'x, y, z'

loop_
  _atom_site_type_symbol
  _atom_site_label
  _atom_site_symmetry_multiplicity
  _atom_site_fract_x
  _atom_site_fract_y
  _atom_site_fract_z
  _atom_site_occupancy
  Zn  Zn1       1.0  0.25000040605135226  0.24999973334312092  0.25000014225811534  1.0000
  Zn  Zn2       1.0  0.749999973187955  0.7500003721136967  0.7499994697818295  1.0000
  As  As1       1.0  0.9999998535191134  1.7160824547045877e-08  1.263117484535689e-07  1.0000
  Cl  Cl1       1.0  0.23904173115343605  0.23904180018997265  0.7609582259043799  1.0000
  Cl  Cl2       1.0  0.7609581566421146  0.7609582555004454  0.23904185570754483  1.0000
  Cl  Cl3       1.0  0.7609580816799447  0.23904172595300902  0.23904186830872962  1.0000
  Cl  Cl4       1.0  0.23904181353801063  0.7609581667095605  0.7609582070353833  1.0000
  Cl  Cl5       1.0  0.2390417898401472  0.7609581529050151  0.23904190471945996  1.0000
  Cl  Cl6       1.0  0.7609581781681849  0.23904176893096302  0.7609581897015368  1.0000
