data_image0
_chemical_formula_structural       Zn2AsBr6
_chemical_formula_sum              "Zn2 As1 Br6"
_cell_length_a       7.487244905192543
_cell_length_b       7.487244772562634
_cell_length_c       7.4872449448957745
_cell_angle_alpha    59.99999926705136
_cell_angle_beta     59.99999856941645
_cell_angle_gamma    59.999997828740945

_space_group_name_H-M_alt    "P 1"
_space_group_IT_number       1

loop_
  _space_group_symop_operation_xyz
  'x, y, z'

loop_
  _atom_site_type_symbol
  _atom_site_label
  _atom_site_symmetry_multiplicity
  _atom_site_fract_x
  _atom_site_fract_y
  _atom_site_fract_z
  _atom_site_occupancy
  Zn  Zn1       1.0  0.2500000383635849  0.24999982411536306  0.2500000834787031  1.0000
  Zn  Zn2       1.0  0.7500000276086362  0.7500001511927753  0.75000013238926  1.0000
  As  As1       1.0  0.9999999389498676  0.9999999934569002  0.9999999963996834  1.0000
  Br  Br1       1.0  0.24623629305201722  0.24623637756855077  0.7537636216848411  1.0000
  Br  Br2       1.0  0.7537637131930928  0.753763656627492  0.2462362940916544  1.0000
  Br  Br3       1.0  0.75376370161491  0.2462363215194012  0.24623624328788532  1.0000
  Br  Br4       1.0  0.24623627788319227  0.7537636865042397  0.7537636855922677  1.0000
  Br  Br5       1.0  0.2462363242601515  0.7537636822976208  0.24623627653369648  1.0000
  Br  Br6       1.0  0.7537636796489241  0.2462363126398188  0.7537636747317702  1.0000
