data_image0
_chemical_formula_structural       Zn2AsF6
_chemical_formula_sum              "Zn2 As1 F6"
_cell_length_a       5.218855607470018
_cell_length_b       5.21885564116051
_cell_length_c       5.218855764735618
_cell_angle_alpha    59.99999904826024
_cell_angle_beta     59.999999049089865
_cell_angle_gamma    59.99999953204407

_space_group_name_H-M_alt    "P 1"
_space_group_IT_number       1

loop_
  _space_group_symop_operation_xyz
  'x, y, z'

loop_
  _atom_site_type_symbol
  _atom_site_label
  _atom_site_symmetry_multiplicity
  _atom_site_fract_x
  _atom_site_fract_y
  _atom_site_fract_z
  _atom_site_occupancy
  Zn  Zn1       1.0  0.2500000014384386  0.2499999832344251  0.25000001081059875  1.0000
  Zn  Zn2       1.0  0.7500000150866359  0.7500000036789632  0.7499999789808749  1.0000
  As  As1       1.0  1.678397033136105e-08  9.387076196734909e-09  0.9999999658370596  1.0000
  F   F1        1.0  0.25954070459077655  0.259540706003039  0.7404592820585537  1.0000
  F   F2        1.0  0.7404592999550521  0.7404592902974255  0.2595407166935201  1.0000
  F   F3        1.0  0.74045929200867  0.25954068570810884  0.2595407205057811  1.0000
  F   F4        1.0  0.2595406603292795  0.740459341100353  0.7404593235865525  1.0000
  F   F5        1.0  0.25954070261663653  0.7404592998603604  0.25954069968199484  1.0000
  F   F6        1.0  0.740459318601976  0.2595406729724137  0.74045930629979  1.0000
