data_image0
_chemical_formula_structural       Zn2BCl6
_chemical_formula_sum              "Zn2 B1 Cl6"
_cell_length_a       7.125510052047776
_cell_length_b       7.1255101132622745
_cell_length_c       7.125510358845168
_cell_angle_alpha    59.99999953372321
_cell_angle_beta     59.99999767830291
_cell_angle_gamma    59.999998761921226

_space_group_name_H-M_alt    "P 1"
_space_group_IT_number       1

loop_
  _space_group_symop_operation_xyz
  'x, y, z'

loop_
  _atom_site_type_symbol
  _atom_site_label
  _atom_site_symmetry_multiplicity
  _atom_site_fract_x
  _atom_site_fract_y
  _atom_site_fract_z
  _atom_site_occupancy
  Zn  Zn1       1.0  0.2500003157819801  0.2500002121693759  0.24999945219446065  1.0000
  Zn  Zn2       1.0  0.7500001847992719  0.7499998905415072  0.7499993438057967  1.0000
  B   B1        1.0  0.9999997926722282  0.9999999948435307  0.9999983168966073  1.0000
  Cl  Cl1       1.0  0.2061085855105413  0.2061086003633399  0.7938916861551054  1.0000
  Cl  Cl2       1.0  0.793891368352897  0.7938913923432698  0.20610901142684343  1.0000
  Cl  Cl3       1.0  0.7938910534016039  0.20610880690931555  0.20610916038391086  1.0000
  Cl  Cl4       1.0  0.206108196118334  0.7938916653472796  0.7938919401003097  1.0000
  Cl  Cl5       1.0  0.2061089060535361  0.7938913065066769  0.20610905018210032  1.0000
  Cl  Cl6       1.0  0.7938915943426638  0.20610812586555094  0.7938919967322642  1.0000
