data_image0
_chemical_formula_structural       Zn2BBr6
_chemical_formula_sum              "Zn2 B1 Br6"
_cell_length_a       7.526717407386513
_cell_length_b       7.526716952464467
_cell_length_c       7.5267167616797535
_cell_angle_alpha    59.999999065713496
_cell_angle_beta     59.99999903210979
_cell_angle_gamma    60.000000284312236

_space_group_name_H-M_alt    "P 1"
_space_group_IT_number       1

loop_
  _space_group_symop_operation_xyz
  'x, y, z'

loop_
  _atom_site_type_symbol
  _atom_site_label
  _atom_site_symmetry_multiplicity
  _atom_site_fract_x
  _atom_site_fract_y
  _atom_site_fract_z
  _atom_site_occupancy
  Zn  Zn1       1.0  0.2499998763368646  0.25000006123552265  0.2500000006332737  1.0000
  Zn  Zn2       1.0  0.7500000340119052  0.7499998891839761  0.7500002123805627  1.0000
  B   B1        1.0  1.9923281689030436e-07  1.9851800112666137e-07  0.9999994676458456  1.0000
  Br  Br1       1.0  0.21127813917364782  0.21127808773561688  0.7887219239157789  1.0000
  Br  Br2       1.0  0.7887218084596856  0.7887218382759333  0.21127817902890647  1.0000
  Br  Br3       1.0  0.7887219038507869  0.21127812956722794  0.2112781285250027  1.0000
  Br  Br4       1.0  0.21127806663765106  0.7887219119752866  0.7887219663422714  1.0000
  Br  Br5       1.0  0.21127810634167796  0.7887217948632222  0.2112781968605232  1.0000
  Br  Br6       1.0  0.7887218877969946  0.2112780790780349  0.7887219473960544  1.0000
