data_image0
_chemical_formula_structural       Zn2BI6
_chemical_formula_sum              "Zn2 B1 I6"
_cell_length_a       7.63797964579072
_cell_length_b       7.637979779014828
_cell_length_c       7.637979666997467
_cell_angle_alpha    59.99999943941296
_cell_angle_beta     59.99999839824369
_cell_angle_gamma    59.99999827095454

_space_group_name_H-M_alt    "P 1"
_space_group_IT_number       1

loop_
  _space_group_symop_operation_xyz
  'x, y, z'

loop_
  _atom_site_type_symbol
  _atom_site_label
  _atom_site_symmetry_multiplicity
  _atom_site_fract_x
  _atom_site_fract_y
  _atom_site_fract_z
  _atom_site_occupancy
  Zn  Zn1       1.0  0.24999998964508785  0.24999999409510648  0.24999999236929887  1.0000
  Zn  Zn2       1.0  0.7499999934749572  0.7499999903027849  0.7500000158176799  1.0000
  B   B1        1.0  0.9999999483240938  1.4431439991603594e-08  0.9999999976742857  1.0000
  I   I1        1.0  0.22889119875472558  0.2288912041160988  0.7711087932275875  1.0000
  I   I2        1.0  0.7711088148604601  0.7711087931097377  0.22889120377182187  1.0000
  I   I3        1.0  0.7711087973054551  0.22889122721211413  0.22889123800601513  1.0000
  I   I4        1.0  0.22889122180665003  0.7711087988766  0.7711087719261704  1.0000
  I   I5        1.0  0.2288912065276004  0.7711088150386814  0.22889118115843868  1.0000
  I   I6        1.0  0.7711088382246638  0.22889116134174278  0.7711088028396572  1.0000
