data_image0
_chemical_formula_structural       Zn2GaCl6
_chemical_formula_sum              "Zn2 Ga1 Cl6"
_cell_length_a       7.02436609956721
_cell_length_b       7.02436633788624
_cell_length_c       7.024366250390782
_cell_angle_alpha    60.00000029457215
_cell_angle_beta     59.99999839165087
_cell_angle_gamma    59.99999859788797

_space_group_name_H-M_alt    "P 1"
_space_group_IT_number       1

loop_
  _space_group_symop_operation_xyz
  'x, y, z'

loop_
  _atom_site_type_symbol
  _atom_site_label
  _atom_site_symmetry_multiplicity
  _atom_site_fract_x
  _atom_site_fract_y
  _atom_site_fract_z
  _atom_site_occupancy
  Zn  Zn1       1.0  0.24999987825438627  0.25000013733315823  0.24999996534638555  1.0000
  Zn  Zn2       1.0  0.7500000536433805  0.7499995942668545  0.7500001823059281  1.0000
  Ga  Ga1       1.0  0.9999999680517235  6.625552151646938e-08  1.4165929080000887e-08  1.0000
  Cl  Cl1       1.0  0.23815925183224781  0.23815940177694456  0.76184066134659  1.0000
  Cl  Cl2       1.0  0.7618406847404403  0.7618407744324839  0.2381592460037791  1.0000
  Cl  Cl3       1.0  0.7618407718189562  0.23815925255717138  0.23815926615322675  1.0000
  Cl  Cl4       1.0  0.23815933563448108  0.7618407266292573  0.7618406813169701  1.0000
  Cl  Cl5       1.0  0.2381593267195119  0.7618407133444854  0.2381592813293488  1.0000
  Cl  Cl6       1.0  0.7618407283785412  0.2381593390717307  0.761840698412126  1.0000
