data_image0
_chemical_formula_structural       Zn2GaF6
_chemical_formula_sum              "Zn2 Ga1 F6"
_cell_length_a       5.4863711458281506
_cell_length_b       5.4863707642646125
_cell_length_c       5.4863710324262005
_cell_angle_alpha    60.000000082198305
_cell_angle_beta     60.00000014664887
_cell_angle_gamma    59.999996797646546

_space_group_name_H-M_alt    "P 1"
_space_group_IT_number       1

loop_
  _space_group_symop_operation_xyz
  'x, y, z'

loop_
  _atom_site_type_symbol
  _atom_site_label
  _atom_site_symmetry_multiplicity
  _atom_site_fract_x
  _atom_site_fract_y
  _atom_site_fract_z
  _atom_site_occupancy
  Zn  Zn1       1.0  0.2499999619029891  0.24999999463842298  0.24999993347998922  1.0000
  Zn  Zn2       1.0  0.7499999943420135  0.7500000999969927  0.75000008178545  1.0000
  Ga  Ga1       1.0  3.0442939508571704e-08  2.232340589544455e-08  0.9999999426309537  1.0000
  F   F1        1.0  0.243747308552576  0.243747152082792  0.7562528570473904  1.0000
  F   F2        1.0  0.7562526591094709  0.7562528956734684  0.2437471923533898  1.0000
  F   F3        1.0  0.7562527699308668  0.24374719682961762  0.24374720327794663  1.0000
  F   F4        1.0  0.2437471865294332  0.7562527393096043  0.7562528036384129  1.0000
  F   F5        1.0  0.24374725353088855  0.7562526413367795  0.2437472150770145  1.0000
  F   F6        1.0  0.7562527868828124  0.2437472702466922  0.7562527493816298  1.0000
