data_image0
_chemical_formula_structural       Zn2IrBr6
_chemical_formula_sum              "Zn2 Ir1 Br6"
_cell_length_a       7.300983896333034
_cell_length_b       7.300983509636195
_cell_length_c       7.300983665976552
_cell_angle_alpha    60.000000075964515
_cell_angle_beta     59.999999611286086
_cell_angle_gamma    60.0000010514864

_space_group_name_H-M_alt    "P 1"
_space_group_IT_number       1

loop_
  _space_group_symop_operation_xyz
  'x, y, z'

loop_
  _atom_site_type_symbol
  _atom_site_label
  _atom_site_symmetry_multiplicity
  _atom_site_fract_x
  _atom_site_fract_y
  _atom_site_fract_z
  _atom_site_occupancy
  Zn  Zn1       1.0  0.2499999471164473  0.2500000090993208  0.250000038064124  1.0000
  Zn  Zn2       1.0  0.7500000302275492  0.7499999920703246  0.7499999455986286  1.0000
  Ir  Ir1       1.0  1.2013900294025e-08  0.9999999781924134  7.636199834680112e-09  1.0000
  Br  Br1       1.0  0.2411788864558239  0.24117885550902324  0.7588211201692803  1.0000
  Br  Br2       1.0  0.7588211194523417  0.7588211406281029  0.2411788654244316  1.0000
  Br  Br3       1.0  0.7588211158518006  0.2411788901151535  0.2411788857845844  1.0000
  Br  Br4       1.0  0.24117885858395183  0.7588211529921601  0.7588211509564142  1.0000
  Br  Br5       1.0  0.2411789043571315  0.7588211187476814  0.2411788653425717  1.0000
  Br  Br6       1.0  0.7588211138362888  0.24117886900191135  0.7588211155629223  1.0000
