data_image0
_chemical_formula_structural       Zn2IrCl6
_chemical_formula_sum              "Zn2 Ir1 Cl6"
_cell_length_a       7.121944131137712
_cell_length_b       7.12194392163378
_cell_length_c       7.1219437367895795
_cell_angle_alpha    59.99999932791799
_cell_angle_beta     59.999999334864235
_cell_angle_gamma    59.999998459358

_space_group_name_H-M_alt    "P 1"
_space_group_IT_number       1

loop_
  _space_group_symop_operation_xyz
  'x, y, z'

loop_
  _atom_site_type_symbol
  _atom_site_label
  _atom_site_symmetry_multiplicity
  _atom_site_fract_x
  _atom_site_fract_y
  _atom_site_fract_z
  _atom_site_occupancy
  Zn  Zn1       1.0  0.24999994983962173  0.2500000464520309  0.250000008511354  1.0000
  Zn  Zn2       1.0  0.7500001261280828  0.7500000877657577  0.7499997950792867  1.0000
  Ir  Ir1       1.0  2.386191469035307e-08  0.9999999673261215  8.618314994471384e-09  1.0000
  Cl  Cl1       1.0  0.231779538907486  0.23177967797620122  0.768220370913084  1.0000
  Cl  Cl2       1.0  0.7682203941726986  0.7682203255460742  0.23177970426373934  1.0000
  Cl  Cl3       1.0  0.768220367816478  0.23177954743135235  0.23177969555472744  1.0000
  Cl  Cl4       1.0  0.2317796290378633  0.768220342592188  0.7682203778062754  1.0000
  Cl  Cl5       1.0  0.23177962985085662  0.7682203709146588  0.23177964267168794  1.0000
  Cl  Cl6       1.0  0.7682203508210583  0.2317796308879384  0.7682204025485535  1.0000
