data_image0
_chemical_formula_structural       Zn2IrI6
_chemical_formula_sum              "Zn2 Ir1 I6"
_cell_length_a       7.63629124321658
_cell_length_b       7.636291230101188
_cell_length_c       7.636291258267729
_cell_angle_alpha    60.00000018106238
_cell_angle_beta     60.000000283407125
_cell_angle_gamma    60.000000404558705

_space_group_name_H-M_alt    "P 1"
_space_group_IT_number       1

loop_
  _space_group_symop_operation_xyz
  'x, y, z'

loop_
  _atom_site_type_symbol
  _atom_site_label
  _atom_site_symmetry_multiplicity
  _atom_site_fract_x
  _atom_site_fract_y
  _atom_site_fract_z
  _atom_site_occupancy
  Zn  Zn1       1.0  0.250000004143507  0.25000000925211224  0.24999999464689093  1.0000
  Zn  Zn2       1.0  0.7499999982108172  0.7500000069063156  0.7500000027850711  1.0000
  Ir  Ir1       1.0  1.4203965455589464e-09  4.811543284419342e-09  0.999999978550523  1.0000
  I   I1        1.0  0.24817320154472802  0.2481731795765355  0.7518268069598866  1.0000
  I   I2        1.0  0.7518268247598493  0.7518267964856981  0.24817318806875652  1.0000
  I   I3        1.0  0.7518267885130593  0.24817320157853054  0.24817320791850817  1.0000
  I   I4        1.0  0.24817317692399118  0.7518268209952884  0.7518268178597575  1.0000
  I   I5        1.0  0.24817319953665526  0.751826802285994  0.24817319402245794  1.0000
  I   I6        1.0  0.751826805506486  0.2481731785877828  0.751826806612059  1.0000
