data_image0
_chemical_formula_structural       Zn2MoCl6
_chemical_formula_sum              "Zn2 Mo1 Cl6"
_cell_length_a       7.407063644528135
_cell_length_b       7.407063307223617
_cell_length_c       7.407064132110434
_cell_angle_alpha    59.9999990112243
_cell_angle_beta     59.99999852534882
_cell_angle_gamma    59.99999847957636

_space_group_name_H-M_alt    "P 1"
_space_group_IT_number       1

loop_
  _space_group_symop_operation_xyz
  'x, y, z'

loop_
  _atom_site_type_symbol
  _atom_site_label
  _atom_site_symmetry_multiplicity
  _atom_site_fract_x
  _atom_site_fract_y
  _atom_site_fract_z
  _atom_site_occupancy
  Zn  Zn1       1.0  0.2500004024611059  0.2499998446600195  0.24999967683257263  1.0000
  Zn  Zn2       1.0  0.7500000466888153  0.7500000697083713  0.7499997371990863  1.0000
  Mo  Mo1       1.0  0.9999999441301912  4.133706181132856e-08  6.12688766478e-08  1.0000
  Cl  Cl1       1.0  0.22539139758433543  0.22539141554245556  0.7746086326914231  1.0000
  Cl  Cl2       1.0  0.7746085438932206  0.7746085252816699  0.2253915903248887  1.0000
  Cl  Cl3       1.0  0.774608444481169  0.22539138621796861  0.2253915729177479  1.0000
  Cl  Cl4       1.0  0.2253913249776748  0.774608691845196  0.7746086337368383  1.0000
  Cl  Cl5       1.0  0.22539141374834123  0.7746085541660779  0.22539147207755172  1.0000
  Cl  Cl6       1.0  0.7746084629462694  0.22539145941127153  0.7746086740502437  1.0000
