data_image0
_chemical_formula_structural       Zn2MoF6
_chemical_formula_sum              "Zn2 Mo1 F6"
_cell_length_a       6.523909683315433
_cell_length_b       6.523910165766677
_cell_length_c       6.523909259577998
_cell_angle_alpha    60.00000895207154
_cell_angle_beta     60.0000064489554
_cell_angle_gamma    60.000006388503905

_space_group_name_H-M_alt    "P 1"
_space_group_IT_number       1

loop_
  _space_group_symop_operation_xyz
  'x, y, z'

loop_
  _atom_site_type_symbol
  _atom_site_label
  _atom_site_symmetry_multiplicity
  _atom_site_fract_x
  _atom_site_fract_y
  _atom_site_fract_z
  _atom_site_occupancy
  Zn  Zn1       1.0  0.2500006157406478  0.25000119990647285  0.24999951476443202  1.0000
  Zn  Zn2       1.0  0.750000052165049  0.749998572264434  0.7500001284236602  1.0000
  Mo  Mo1       1.0  0.9999999990705563  0.9999999868587859  1.5571918675558002e-07  1.0000
  F   F1        1.0  0.21299063172857213  0.21299086937334538  0.787009044255915  1.0000
  F   F2        1.0  0.7870093147852553  0.7870090492282876  0.21299079291050982  1.0000
  F   F3        1.0  0.787008888728733  0.21299108075279735  0.2129906298658766  1.0000
  F   F4        1.0  0.21299048043088517  0.7870094442222353  0.7870093522045755  1.0000
  F   F5        1.0  0.21299101912692808  0.7870085128206961  0.21299069866266299  1.0000
  F   F6        1.0  0.7870090224122122  0.21299128000071424  0.7870096643113685  1.0000
