data_image0
_chemical_formula_structural       Zn2MoI6
_chemical_formula_sum              "Zn2 Mo1 I6"
_cell_length_a       7.888490826132005
_cell_length_b       7.888490691459363
_cell_length_c       7.888490728278508
_cell_angle_alpha    59.99999989667418
_cell_angle_beta     59.99999957477269
_cell_angle_gamma    59.99999961666657

_space_group_name_H-M_alt    "P 1"
_space_group_IT_number       1

loop_
  _space_group_symop_operation_xyz
  'x, y, z'

loop_
  _atom_site_type_symbol
  _atom_site_label
  _atom_site_symmetry_multiplicity
  _atom_site_fract_x
  _atom_site_fract_y
  _atom_site_fract_z
  _atom_site_occupancy
  Zn  Zn1       1.0  0.24999999864913944  0.25000000422160396  0.25000000036071046  1.0000
  Zn  Zn2       1.0  0.7499999981951002  0.7499999971390933  0.7499999988474625  1.0000
  Mo  Mo1       1.0  2.9379603193404494e-08  0.9999999689485626  8.35916905392534e-10  1.0000
  I   I1        1.0  0.24830948438853412  0.24830943852607723  0.7516905385564091  1.0000
  I   I2        1.0  0.7516905411554332  0.7516905162574637  0.24830946959047798  1.0000
  I   I3        1.0  0.7516905319049654  0.2483094936013454  0.24830948226216693  1.0000
  I   I4        1.0  0.2483094348645603  0.7516905496787923  0.751690579477802  1.0000
  I   I5        1.0  0.2483094194880773  0.7516905602185501  0.24830944768691332  1.0000
  I   I6        1.0  0.7516905543491987  0.24830947064101244  0.7516904912301764  1.0000
