data_image0
_chemical_formula_structural       Zn2MoBr6
_chemical_formula_sum              "Zn2 Mo1 Br6"
_cell_length_a       7.532732983969861
_cell_length_b       7.532732462622047
_cell_length_c       7.532732637162937
_cell_angle_alpha    59.999998488428965
_cell_angle_beta     59.99999940702674
_cell_angle_gamma    59.99999971934669

_space_group_name_H-M_alt    "P 1"
_space_group_IT_number       1

loop_
  _space_group_symop_operation_xyz
  'x, y, z'

loop_
  _atom_site_type_symbol
  _atom_site_label
  _atom_site_symmetry_multiplicity
  _atom_site_fract_x
  _atom_site_fract_y
  _atom_site_fract_z
  _atom_site_occupancy
  Zn  Zn1       1.0  0.250000121313828  0.24999995966058097  0.24999996358830184  1.0000
  Zn  Zn2       1.0  0.7500001456624106  0.7499999911686486  0.7500000075328876  1.0000
  Mo  Mo1       1.0  0.9999999558086021  1.3007177091443112e-08  0.9999999916964003  1.0000
  Br  Br1       1.0  0.2374840546985065  0.2374841469071932  0.7625158758532683  1.0000
  Br  Br2       1.0  0.7625158545357172  0.762515860828433  0.23748412222456358  1.0000
  Br  Br3       1.0  0.762515866735086  0.2374841491255529  0.23748409586859925  1.0000
  Br  Br4       1.0  0.23748406783067597  0.7625158699913543  0.7625159342993227  1.0000
  Br  Br5       1.0  0.23748407632960375  0.7625158734797934  0.23748411840331016  1.0000
  Br  Br6       1.0  0.7625158583291453  0.23748414075942215  0.7625158982264906  1.0000
