data_image0
_chemical_formula_structural       Zn2NF6
_chemical_formula_sum              "Zn2 N1 F6"
_cell_length_a       4.970469144382241
_cell_length_b       4.9704691526052
_cell_length_c       4.970468972631848
_cell_angle_alpha    59.999999944910535
_cell_angle_beta     60.000000505725325
_cell_angle_gamma    60.000001259622124

_space_group_name_H-M_alt    "P 1"
_space_group_IT_number       1

loop_
  _space_group_symop_operation_xyz
  'x, y, z'

loop_
  _atom_site_type_symbol
  _atom_site_label
  _atom_site_symmetry_multiplicity
  _atom_site_fract_x
  _atom_site_fract_y
  _atom_site_fract_z
  _atom_site_occupancy
  Zn  Zn1       1.0  0.24999997094714338  0.2500000539559801  0.24999990625496135  1.0000
  Zn  Zn2       1.0  0.7500001384944098  0.7499998612547196  0.7500000499798646  1.0000
  N   N1        1.0  0.9999999528571374  0.9999999950719148  0.9999999395245227  1.0000
  F   F1        1.0  0.24556970141787896  0.2455700144629343  0.7544301762479013  1.0000
  F   F2        1.0  0.7544304178798448  0.7544298711792512  0.2455698522114572  1.0000
  F   F3        1.0  0.7544299685664436  0.24557005381335614  0.2455697993825693  1.0000
  F   F4        1.0  0.2455697546207048  0.754430218683542  0.754430233704719  1.0000
  F   F5        1.0  0.245569983602339  0.7544301409078136  0.24556987068692282  1.0000
  F   F6        1.0  0.754430125766681  0.24556989996906736  0.7544301072501469  1.0000
