data_image0
_chemical_formula_structural       Zn2PI6
_chemical_formula_sum              "Zn2 P1 I6"
_cell_length_a       7.762398754365701
_cell_length_b       7.762398760059351
_cell_length_c       7.76239872359714
_cell_angle_alpha    59.99999972115934
_cell_angle_beta     60.000000146565085
_cell_angle_gamma    60.00000002900169

_space_group_name_H-M_alt    "P 1"
_space_group_IT_number       1

loop_
  _space_group_symop_operation_xyz
  'x, y, z'

loop_
  _atom_site_type_symbol
  _atom_site_label
  _atom_site_symmetry_multiplicity
  _atom_site_fract_x
  _atom_site_fract_y
  _atom_site_fract_z
  _atom_site_occupancy
  Zn  Zn1       1.0  0.24999999079260335  0.24999999828085634  0.24999999799902395  1.0000
  Zn  Zn2       1.0  0.7500000138489162  0.7500000043093193  0.7499999968698982  1.0000
  P   P1        1.0  0.9999999738401522  0.9999999936888331  0.9999999866054912  1.0000
  I   I1        1.0  0.2529235892261731  0.25292358711274004  0.747076405413603  1.0000
  I   I2        1.0  0.7470764126954583  0.7470764280997696  0.2529235780627883  1.0000
  I   I3        1.0  0.7470764168756102  0.25292358277089705  0.252923609533111  1.0000
  I   I4        1.0  0.2529235901248563  0.7470764261304456  0.7470764041894626  1.0000
  I   I5        1.0  0.25292358057289155  0.7470764143916188  0.25292359731217595  1.0000
  I   I6        1.0  0.7470764339710738  0.2529235629538889  0.7470764232635193  1.0000
