data_image0
_chemical_formula_structural       Zn2PCl6
_chemical_formula_sum              "Zn2 P1 Cl6"
_cell_length_a       7.493525019491552
_cell_length_b       7.4935248977775135
_cell_length_c       7.49352532278799
_cell_angle_alpha    59.9999986021138
_cell_angle_beta     59.99999937733641
_cell_angle_gamma    59.9999976850516

_space_group_name_H-M_alt    "P 1"
_space_group_IT_number       1

loop_
  _space_group_symop_operation_xyz
  'x, y, z'

loop_
  _atom_site_type_symbol
  _atom_site_label
  _atom_site_symmetry_multiplicity
  _atom_site_fract_x
  _atom_site_fract_y
  _atom_site_fract_z
  _atom_site_occupancy
  Zn  Zn1       1.0  0.2500000192549319  0.24999991591715431  0.2500000318158553  1.0000
  Zn  Zn2       1.0  0.7499999089432823  0.7500000370410174  0.7499996862542586  1.0000
  P   P1        1.0  1.495798246027765e-08  0.9999999967311912  0.9999999888174717  1.0000
  Cl  Cl1       1.0  0.20765812982514964  0.20765809000845664  0.7923420010135961  1.0000
  Cl  Cl2       1.0  0.792341839494803  0.7923419152506525  0.20765830556022202  1.0000
  Cl  Cl3       1.0  0.7923420370825004  0.2076580008861525  0.20765803638210814  1.0000
  Cl  Cl4       1.0  0.20765818152922189  0.7923418066100375  0.7923419815336652  1.0000
  Cl  Cl5       1.0  0.2076580432755673  0.7923420469140505  0.20765801188927105  1.0000
  Cl  Cl6       1.0  0.7923418117002331  0.2076581904304636  0.7923419475650785  1.0000
