data_image0
_chemical_formula_structural       Zn2RuBr6
_chemical_formula_sum              "Zn2 Ru1 Br6"
_cell_length_a       7.310670188146783
_cell_length_b       7.310669947051922
_cell_length_c       7.310670114116357
_cell_angle_alpha    60.00000068905475
_cell_angle_beta     60.00000017585991
_cell_angle_gamma    60.00000020900063

_space_group_name_H-M_alt    "P 1"
_space_group_IT_number       1

loop_
  _space_group_symop_operation_xyz
  'x, y, z'

loop_
  _atom_site_type_symbol
  _atom_site_label
  _atom_site_symmetry_multiplicity
  _atom_site_fract_x
  _atom_site_fract_y
  _atom_site_fract_z
  _atom_site_occupancy
  Zn  Zn1       1.0  0.24999997908720328  0.2500000043201733  0.2500000111282228  1.0000
  Zn  Zn2       1.0  0.7500000340885115  0.74999998783126  0.7500000180538019  1.0000
  Ru  Ru1       1.0  0.9999999560457539  1.340227198118291e-08  8.436668973931064e-09  1.0000
  Br  Br1       1.0  0.24101669821340124  0.24101674775564966  0.758983280162487  1.0000
  Br  Br2       1.0  0.7589833401216298  0.7589832779014639  0.24101668822617545  1.0000
  Br  Br3       1.0  0.7589833055142822  0.24101669700927228  0.2410166946097929  1.0000
  Br  Br4       1.0  0.24101670638583206  0.758983251584775  0.7589832913312689  1.0000
  Br  Br5       1.0  0.2410167119824078  0.7589832846707126  0.24101672707804891  1.0000
  Br  Br6       1.0  0.7589832764637301  0.24101673428526466  0.7589832737092194  1.0000
