data_image0
_chemical_formula_structural       Zn2RhBr6
_chemical_formula_sum              "Zn2 Rh1 Br6"
_cell_length_a       7.240246856747466
_cell_length_b       7.2402470023586885
_cell_length_c       7.240246973456616
_cell_angle_alpha    59.99999989138102
_cell_angle_beta     59.99999986753239
_cell_angle_gamma    59.9999999992803

_space_group_name_H-M_alt    "P 1"
_space_group_IT_number       1

loop_
  _space_group_symop_operation_xyz
  'x, y, z'

loop_
  _atom_site_type_symbol
  _atom_site_label
  _atom_site_symmetry_multiplicity
  _atom_site_fract_x
  _atom_site_fract_y
  _atom_site_fract_z
  _atom_site_occupancy
  Zn  Zn1       1.0  0.25000000559532387  0.24999994279462975  0.2500000486580674  1.0000
  Zn  Zn2       1.0  0.7500000051355582  0.7500000212238787  0.7499999973703432  1.0000
  Rh  Rh1       1.0  0.9999999987755379  8.45789416677829e-09  1.848197763164885e-08  1.0000
  Br  Br1       1.0  0.24257211100430442  0.24257214183742182  0.7574278609646924  1.0000
  Br  Br2       1.0  0.7574279126455538  0.7574278695452945  0.24257210105656007  1.0000
  Br  Br3       1.0  0.7574278681087516  0.24257213973819874  0.2425721228458912  1.0000
  Br  Br4       1.0  0.2425721253359681  0.757427866569781  0.7574278706269822  1.0000
  Br  Br5       1.0  0.24257208771593114  0.757427882286768  0.24257212684168475  1.0000
  Br  Br6       1.0  0.7574278904410324  0.24257211725489652  0.7574278597030358  1.0000
