data_image0
_chemical_formula_structural       Zn2RuI6
_chemical_formula_sum              "Zn2 Ru1 I6"
_cell_length_a       7.6403648421483386
_cell_length_b       7.64036483835938
_cell_length_c       7.640364928593747
_cell_angle_alpha    59.99999906789775
_cell_angle_beta     59.99999919775425
_cell_angle_gamma    60.00000030420042

_space_group_name_H-M_alt    "P 1"
_space_group_IT_number       1

loop_
  _space_group_symop_operation_xyz
  'x, y, z'

loop_
  _atom_site_type_symbol
  _atom_site_label
  _atom_site_symmetry_multiplicity
  _atom_site_fract_x
  _atom_site_fract_y
  _atom_site_fract_z
  _atom_site_occupancy
  Zn  Zn1       1.0  0.2500000041362432  0.24999999194671169  0.2500000047999332  1.0000
  Zn  Zn2       1.0  0.7499999977224948  0.7500000062969956  0.7500000025879724  1.0000
  Ru  Ru1       1.0  0.9999999879854198  2.2441897006271915e-08  3.274264374058553e-08  1.0000
  I   I1        1.0  0.24911689098456205  0.24911688979753843  0.7508831158209531  1.0000
  I   I2        1.0  0.7508831121104619  0.7508831228731031  0.24911687457347628  1.0000
  I   I3        1.0  0.7508830878787055  0.24911689291417966  0.24911689958822764  1.0000
  I   I4        1.0  0.2491169212013638  0.7508830700636893  0.7508830812479532  1.0000
  I   I5        1.0  0.24911691744920775  0.7508830787438996  0.2491169006197622  1.0000
  I   I6        1.0  0.7508830796922291  0.24911692911776387  0.7508830899205978  1.0000
