data_image0
_chemical_formula_structural       Zn2RuF6
_chemical_formula_sum              "Zn2 Ru1 F6"
_cell_length_a       6.386388770704493
_cell_length_b       6.386385835334778
_cell_length_c       6.386387772000814
_cell_angle_alpha    60.00000261529679
_cell_angle_beta     60.000001075848864
_cell_angle_gamma    59.99999948116963

_space_group_name_H-M_alt    "P 1"
_space_group_IT_number       1

loop_
  _space_group_symop_operation_xyz
  'x, y, z'

loop_
  _atom_site_type_symbol
  _atom_site_label
  _atom_site_symmetry_multiplicity
  _atom_site_fract_x
  _atom_site_fract_y
  _atom_site_fract_z
  _atom_site_occupancy
  Zn  Zn1       1.0  0.2500001774948035  0.24999992090196468  0.2499998532755314  1.0000
  Zn  Zn2       1.0  0.7500002344917915  0.7500002824143684  0.7499997762272752  1.0000
  Ru  Ru1       1.0  0.9999999167569764  0.9999999405499596  1.2145310108280543e-07  1.0000
  F   F1        1.0  0.21415875611988783  0.2141585681283324  0.7858414375207182  1.0000
  F   F2        1.0  0.7858412660080663  0.7858411883538162  0.21415883111055448  1.0000
  F   F3        1.0  0.7858410844144191  0.21415879103878024  0.21415878049549086  1.0000
  F   F4        1.0  0.2141586744441147  0.7858412128322213  0.7858413739413274  1.0000
  F   F5        1.0  0.21415855258328817  0.785841361739362  0.2141588537582141  1.0000
  F   F6        1.0  0.7858413361489532  0.21415843693310535  0.7858412976294037  1.0000
