data_image0
_chemical_formula_structural       Zn2RhF6
_chemical_formula_sum              "Zn2 Rh1 F6"
_cell_length_a       5.717396311665014
_cell_length_b       5.717396653011145
_cell_length_c       5.717396432297972
_cell_angle_alpha    60.00000328690423
_cell_angle_beta     60.0000017951263
_cell_angle_gamma    60.00000305765366

_space_group_name_H-M_alt    "P 1"
_space_group_IT_number       1

loop_
  _space_group_symop_operation_xyz
  'x, y, z'

loop_
  _atom_site_type_symbol
  _atom_site_label
  _atom_site_symmetry_multiplicity
  _atom_site_fract_x
  _atom_site_fract_y
  _atom_site_fract_z
  _atom_site_occupancy
  Zn  Zn1       1.0  0.2499996197736927  0.25000014952405003  0.2500001402739445  1.0000
  Zn  Zn2       1.0  0.7500000336693322  0.750000045850355  0.7500001172138696  1.0000
  Rh  Rh1       1.0  7.437966737530147e-08  0.9999999828629024  0.999999974876812  1.0000
  F   F1        1.0  0.2444120033940441  0.24441186000224374  0.7555880727194946  1.0000
  F   F2        1.0  0.7555881465972399  0.7555879969144776  0.24441187834681422  1.0000
  F   F3        1.0  0.7555881280710136  0.2444120158437557  0.2444117635729335  1.0000
  F   F4        1.0  0.2444118525130648  0.7555880402917273  0.7555881795837885  1.0000
  F   F5        1.0  0.24441192014333996  0.755587992759773  0.24441193318165413  1.0000
  F   F6        1.0  0.7555882620604756  0.2444118341670271  0.7555879940357273  1.0000
