data_image0
_chemical_formula_structural       Zn2RuCl6
_chemical_formula_sum              "Zn2 Ru1 Cl6"
_cell_length_a       7.191540974438995
_cell_length_b       7.1915410432530615
_cell_length_c       7.191541129329732
_cell_angle_alpha    60.00000125005514
_cell_angle_beta     59.99999996790808
_cell_angle_gamma    60.00000141485176

_space_group_name_H-M_alt    "P 1"
_space_group_IT_number       1

loop_
  _space_group_symop_operation_xyz
  'x, y, z'

loop_
  _atom_site_type_symbol
  _atom_site_label
  _atom_site_symmetry_multiplicity
  _atom_site_fract_x
  _atom_site_fract_y
  _atom_site_fract_z
  _atom_site_occupancy
  Zn  Zn1       1.0  0.25000017277433173  0.2499998830573981  0.24999976725247347  1.0000
  Zn  Zn2       1.0  0.7499998333891262  0.7500001192099499  0.7499999487282232  1.0000
  Ru  Ru1       1.0  3.57942976925358e-08  3.406071886504e-09  4.019228443166385e-08  1.0000
  Cl  Cl1       1.0  0.2298456570768821  0.2298455866836512  0.7701544337033039  1.0000
  Cl  Cl2       1.0  0.7701543293653607  0.7701543832260316  0.2298456990536646  1.0000
  Cl  Cl3       1.0  0.7701543751804985  0.22984562540821163  0.22984563288083307  1.0000
  Cl  Cl4       1.0  0.22984565044540203  0.7701543666409295  0.7701543857832259  1.0000
  Cl  Cl5       1.0  0.22984563762000818  0.7701543988210767  0.22984565644173044  1.0000
  Cl  Cl6       1.0  0.7701543243313744  0.22984562047663012  0.7701544416182962  1.0000
