data_image0
_chemical_formula_structural       Zn2RhCl6
_chemical_formula_sum              "Zn2 Rh1 Cl6"
_cell_length_a       7.009415461245882
_cell_length_b       7.009415158653366
_cell_length_c       7.009415601082489
_cell_angle_alpha    59.99999781471614
_cell_angle_beta     59.9999975214132
_cell_angle_gamma    59.999997160683044

_space_group_name_H-M_alt    "P 1"
_space_group_IT_number       1

loop_
  _space_group_symop_operation_xyz
  'x, y, z'

loop_
  _atom_site_type_symbol
  _atom_site_label
  _atom_site_symmetry_multiplicity
  _atom_site_fract_x
  _atom_site_fract_y
  _atom_site_fract_z
  _atom_site_occupancy
  Zn  Zn1       1.0  0.2500000367150266  0.25000017834053895  0.2499999529743817  1.0000
  Zn  Zn2       1.0  0.7499999151349499  0.7499999339554217  0.7499995750214355  1.0000
  Rh  Rh1       1.0  2.4427703664863454e-08  0.9999999860217167  7.181452223900505e-08  1.0000
  Cl  Cl1       1.0  0.23614951644308166  0.23614939020436465  0.7638505773420775  1.0000
  Cl  Cl2       1.0  0.7638504999393705  0.7638505630886239  0.23614961848280674  1.0000
  Cl  Cl3       1.0  0.7638505658904492  0.23614940943789234  0.23614949452603115  1.0000
  Cl  Cl4       1.0  0.23614951459048414  0.7638504652272504  0.7638506557773937  1.0000
  Cl  Cl5       1.0  0.2361493768967292  0.7638504971286323  0.23614953206924882  1.0000
  Cl  Cl6       1.0  0.7638505526896797  0.23614957323248092  0.7638505116609599  1.0000
