data_image0
_chemical_formula_structural       Zn2SbI6
_chemical_formula_sum              "Zn2 Sb1 I6"
_cell_length_a       8.061354944480474
_cell_length_b       8.061355018226553
_cell_length_c       8.06135498426444
_cell_angle_alpha    60.00000058642068
_cell_angle_beta     59.999998767199685
_cell_angle_gamma    60.0000003078568

_space_group_name_H-M_alt    "P 1"
_space_group_IT_number       1

loop_
  _space_group_symop_operation_xyz
  'x, y, z'

loop_
  _atom_site_type_symbol
  _atom_site_label
  _atom_site_symmetry_multiplicity
  _atom_site_fract_x
  _atom_site_fract_y
  _atom_site_fract_z
  _atom_site_occupancy
  Zn  Zn1       1.0  0.24999999733220582  0.2499999989293275  0.24999999918813193  1.0000
  Zn  Zn2       1.0  0.7500000010104956  0.7499999998265409  0.7500000051835264  1.0000
  Sb  Sb1       1.0  0.9999999613825392  4.7097653820547916e-08  1.9329142666231058e-08  1.0000
  I   I1        1.0  0.2606213950743816  0.2606214329162036  0.7393785867305981  1.0000
  I   I2        1.0  0.7393785623223206  0.7393785597625482  0.260621428747756  1.0000
  I   I3        1.0  0.7393786127878852  0.2606213946463093  0.2606213807633941  1.0000
  I   I4        1.0  0.2606214290478558  0.739378576762534  0.7393785559919165  1.0000
  I   I5        1.0  0.26062146710199074  0.7393785511313885  0.26062146892571253  1.0000
  I   I6        1.0  0.7393785690761696  0.2606214415473639  0.7393785592623338  1.0000
