data_image0
_chemical_formula_structural       Zn2SbF6
_chemical_formula_sum              "Zn2 Sb1 F6"
_cell_length_a       6.884788397753717
_cell_length_b       6.884788560943695
_cell_length_c       6.884788197629228
_cell_angle_alpha    60.00000193814595
_cell_angle_beta     60.000006742296115
_cell_angle_gamma    60.000004915757465

_space_group_name_H-M_alt    "P 1"
_space_group_IT_number       1

loop_
  _space_group_symop_operation_xyz
  'x, y, z'

loop_
  _atom_site_type_symbol
  _atom_site_label
  _atom_site_symmetry_multiplicity
  _atom_site_fract_x
  _atom_site_fract_y
  _atom_site_fract_z
  _atom_site_occupancy
  Zn  Zn1       1.0  0.2500000900242262  0.2500002218918069  0.24999954612217207  1.0000
  Zn  Zn2       1.0  0.7499999280947959  0.7499998651639948  0.7499996758564341  1.0000
  Sb  Sb1       1.0  0.9999998090053691  0.9999999893265089  1.1971626019995857e-07  1.0000
  F   F1        1.0  0.19771262947833287  0.1977122980029671  0.8022876384875766  1.0000
  F   F2        1.0  0.802287439429822  0.8022878228521874  0.19771250564185394  1.0000
  F   F3        1.0  0.8022876576442819  0.19771254119242335  0.19771241771450795  1.0000
  F   F4        1.0  0.19771236298333572  0.8022874729278755  0.8022878024701393  1.0000
  F   F5        1.0  0.19771239929452336  0.8022874545732973  0.19771261405010457  1.0000
  F   F6        1.0  0.8022875969718976  0.19771254709460048  0.802287660853278  1.0000
