data_image0
_chemical_formula_structural       Zn2SbBr6
_chemical_formula_sum              "Zn2 Sb1 Br6"
_cell_length_a       7.5284702233145895
_cell_length_b       7.528470255371867
_cell_length_c       7.528470338762522
_cell_angle_alpha    59.999999078607054
_cell_angle_beta     59.99999970379854
_cell_angle_gamma    59.99999983082962

_space_group_name_H-M_alt    "P 1"
_space_group_IT_number       1

loop_
  _space_group_symop_operation_xyz
  'x, y, z'

loop_
  _atom_site_type_symbol
  _atom_site_label
  _atom_site_symmetry_multiplicity
  _atom_site_fract_x
  _atom_site_fract_y
  _atom_site_fract_z
  _atom_site_occupancy
  Zn  Zn1       1.0  0.24999998845003088  0.24999995774043798  0.25000006220104176  1.0000
  Zn  Zn2       1.0  0.7500000323392216  0.7499999529353836  0.7499999857355819  1.0000
  Sb  Sb1       1.0  1.481147453415066e-08  0.9999999739709171  0.9999999232547573  1.0000
  Br  Br1       1.0  0.24906453381911356  0.24906456491345316  0.7509354474941692  1.0000
  Br  Br2       1.0  0.7509354756116025  0.7509354856686923  0.24906451890077627  1.0000
  Br  Br3       1.0  0.7509354514891484  0.24906457311153654  0.24906452237916135  1.0000
  Br  Br4       1.0  0.24906447121262115  0.7509355213946868  0.7509355212064435  1.0000
  Br  Br5       1.0  0.2490645182422338  0.7509354875356204  0.24906451028896043  1.0000
  Br  Br6       1.0  0.7509355074726225  0.2490644865860921  0.7509355034619157  1.0000
