data_image0
_chemical_formula_structural       Zn2SbCl6
_chemical_formula_sum              "Zn2 Sb1 Cl6"
_cell_length_a       7.370425292691474
_cell_length_b       7.37042482460539
_cell_length_c       7.3704251130874425
_cell_angle_alpha    59.99999976053629
_cell_angle_beta     59.99999992869443
_cell_angle_gamma    59.99999908617366

_space_group_name_H-M_alt    "P 1"
_space_group_IT_number       1

loop_
  _space_group_symop_operation_xyz
  'x, y, z'

loop_
  _atom_site_type_symbol
  _atom_site_label
  _atom_site_symmetry_multiplicity
  _atom_site_fract_x
  _atom_site_fract_y
  _atom_site_fract_z
  _atom_site_occupancy
  Zn  Zn1       1.0  0.2500000208648964  0.24999987829625997  0.2500000064509317  1.0000
  Zn  Zn2       1.0  0.74999996012027  0.7500001068121185  0.7500000584960238  1.0000
  Sb  Sb1       1.0  1.1884404590019565e-08  6.646807517517616e-09  0.9999999866640724  1.0000
  Cl  Cl1       1.0  0.23287054307846453  0.23287050783523086  0.7671294378044418  1.0000
  Cl  Cl2       1.0  0.7671294775322554  0.7671294805965501  0.23287051612096196  1.0000
  Cl  Cl3       1.0  0.7671294787336844  0.23287056852300012  0.23287051278147214  1.0000
  Cl  Cl4       1.0  0.23287054076923344  0.7671294232321855  0.7671294929503102  1.0000
  Cl  Cl5       1.0  0.23287050999450756  0.7671295297269232  0.23287053520684867  1.0000
  Cl  Cl6       1.0  0.767129481197056  0.23287049526229994  0.7671294680635924  1.0000
