data_image0
_chemical_formula_structural       Zn2TaCl6
_chemical_formula_sum              "Zn2 Ta1 Cl6"
_cell_length_a       7.549255430356974
_cell_length_b       7.549255236559651
_cell_length_c       7.549254813004377
_cell_angle_alpha    59.99999956320448
_cell_angle_beta     59.999999606160955
_cell_angle_gamma    59.99999948747305

_space_group_name_H-M_alt    "P 1"
_space_group_IT_number       1

loop_
  _space_group_symop_operation_xyz
  'x, y, z'

loop_
  _atom_site_type_symbol
  _atom_site_label
  _atom_site_symmetry_multiplicity
  _atom_site_fract_x
  _atom_site_fract_y
  _atom_site_fract_z
  _atom_site_occupancy
  Zn  Zn1       1.0  0.2500001155062156  0.2499999298794171  0.24999998745300897  1.0000
  Zn  Zn2       1.0  0.7499999157511407  0.7500000540794566  0.7499999859136505  1.0000
  Ta  Ta1       1.0  1.7474592070500162e-08  0.9999999659308872  3.743920967257956e-08  1.0000
  Cl  Cl1       1.0  0.22164490063761  0.22164502299717162  0.778355057894986  1.0000
  Cl  Cl2       1.0  0.7783550973088176  0.7783549966531526  0.22164495004653226  1.0000
  Cl  Cl3       1.0  0.7783549585927034  0.22164498116214282  0.2216449749988311  1.0000
  Cl  Cl4       1.0  0.2216450267620687  0.7783550303764891  0.7783549638163181  1.0000
  Cl  Cl5       1.0  0.22164500849585936  0.7783550042577028  0.22164499487693246  1.0000
  Cl  Cl6       1.0  0.7783549735373695  0.22164499430221848  0.7783550302417533  1.0000
