data_image0
_chemical_formula_structural       Zn2TaI6
_chemical_formula_sum              "Zn2 Ta1 I6"
_cell_length_a       8.1080272459943
_cell_length_b       8.108027133267584
_cell_length_c       8.108027333074897
_cell_angle_alpha    59.99999949684581
_cell_angle_beta     59.999999357303075
_cell_angle_gamma    60.00000002778167

_space_group_name_H-M_alt    "P 1"
_space_group_IT_number       1

loop_
  _space_group_symop_operation_xyz
  'x, y, z'

loop_
  _atom_site_type_symbol
  _atom_site_label
  _atom_site_symmetry_multiplicity
  _atom_site_fract_x
  _atom_site_fract_y
  _atom_site_fract_z
  _atom_site_occupancy
  Zn  Zn1       1.0  0.24999999768410022  0.25000000240102443  0.25000000413103435  1.0000
  Zn  Zn2       1.0  0.7499999989216578  0.7499999981398707  0.7499999991898786  1.0000
  Ta  Ta1       1.0  9.882625116719987e-09  4.53160150619654e-09  2.2393181563420385e-08  1.0000
  I   I1        1.0  0.2411150730415952  0.24111507977681787  0.7588849454566282  1.0000
  I   I2        1.0  0.758884919953195  0.758884935869415  0.24111509651754198  1.0000
  I   I3        1.0  0.7588849154603298  0.24111505349792817  0.241115090051073  1.0000
  I   I4        1.0  0.24111511184479253  0.7588848805794811  0.75888488058473  1.0000
  I   I5        1.0  0.24111507154628536  0.7588849461596505  0.24111506185619444  1.0000
  I   I6        1.0  0.758884910961158  0.24111509667618974  0.7588848915993803  1.0000
