data_image0
_chemical_formula_structural       Zn2TaBr6
_chemical_formula_sum              "Zn2 Ta1 Br6"
_cell_length_a       7.663271107409041
_cell_length_b       7.663271183755156
_cell_length_c       7.663271320719652
_cell_angle_alpha    59.999999442521506
_cell_angle_beta     60.000000183777956
_cell_angle_gamma    59.999998536469704

_space_group_name_H-M_alt    "P 1"
_space_group_IT_number       1

loop_
  _space_group_symop_operation_xyz
  'x, y, z'

loop_
  _atom_site_type_symbol
  _atom_site_label
  _atom_site_symmetry_multiplicity
  _atom_site_fract_x
  _atom_site_fract_y
  _atom_site_fract_z
  _atom_site_occupancy
  Zn  Zn1       1.0  0.24999997538268115  0.25000001119661547  0.2499999944599222  1.0000
  Zn  Zn2       1.0  0.7500000337391914  0.7500000543664597  0.7499999505141045  1.0000
  Ta  Ta1       1.0  0.9999999983260791  0.9999999824197872  4.746991328096778e-08  1.0000
  Br  Br1       1.0  0.2336933329638114  0.23369335222797977  0.7663066723698775  1.0000
  Br  Br2       1.0  0.7663066579720873  0.7663065870772043  0.2336933852787795  1.0000
  Br  Br3       1.0  0.7663066314621845  0.23369335609160505  0.2336933499882498  1.0000
  Br  Br4       1.0  0.23369334897047922  0.7663066599272348  0.7663066445419048  1.0000
  Br  Br5       1.0  0.23369333678334844  0.7663066651429205  0.23369333979665838  1.0000
  Br  Br6       1.0  0.7663066886861474  0.23369333329570588  0.7663066318707072  1.0000
