data_image0
_chemical_formula_structural       Zr2AsSe6
_chemical_formula_sum              "Zr2 As1 Se6"
_cell_length_a       6.52858574277803
_cell_length_b       6.528586091648325
_cell_length_c       6.528585829662274
_cell_angle_alpha    59.99999980347727
_cell_angle_beta     59.999998870293446
_cell_angle_gamma    60.000000471829544

_space_group_name_H-M_alt    "P 1"
_space_group_IT_number       1

loop_
  _space_group_symop_operation_xyz
  'x, y, z'

loop_
  _atom_site_type_symbol
  _atom_site_label
  _atom_site_symmetry_multiplicity
  _atom_site_fract_x
  _atom_site_fract_y
  _atom_site_fract_z
  _atom_site_occupancy
  Zr  Zr1       1.0  0.2500002500629145  0.25000002556471534  0.2499997730192524  1.0000
  Zr  Zr2       1.0  0.7500002712892652  0.7499999003527233  0.7499995624333216  1.0000
  As  As1       1.0  1.1130139997356787e-08  3.751945213716549e-09  0.999999991027232  1.0000
  Se  Se1       1.0  0.2584313489761979  0.25843139699051065  0.7415686411259953  1.0000
  Se  Se2       1.0  0.7415685096343407  0.7415687184001539  0.25843147625498974  1.0000
  Se  Se3       1.0  0.741568558900387  0.25843128728897763  0.25843156337579104  1.0000
  Se  Se4       1.0  0.2584313426092847  0.741568587977193  0.7415686832523828  1.0000
  Se  Se5       1.0  0.25843124791653327  0.7415685425380106  0.25843156368854553  1.0000
  Se  Se6       1.0  0.7415684545501795  0.2584315372091732  0.7415687522116882  1.0000
