data_image0
_chemical_formula_structural       Zr2AsO6
_chemical_formula_sum              "Zr2 As1 O6"
_cell_length_a       5.03500312930427
_cell_length_b       5.035003278594271
_cell_length_c       5.035003274770392
_cell_angle_alpha    59.99999800887604
_cell_angle_beta     59.99999905084083
_cell_angle_gamma    59.99999812097408

_space_group_name_H-M_alt    "P 1"
_space_group_IT_number       1

loop_
  _space_group_symop_operation_xyz
  'x, y, z'

loop_
  _atom_site_type_symbol
  _atom_site_label
  _atom_site_symmetry_multiplicity
  _atom_site_fract_x
  _atom_site_fract_y
  _atom_site_fract_z
  _atom_site_occupancy
  Zr  Zr1       1.0  0.25000004984968555  0.24999992245351466  0.250000139666892  1.0000
  Zr  Zr2       1.0  0.7500001140079762  0.7500001079050891  0.7499999129738457  1.0000
  As  As1       1.0  0.9999999654606917  7.297382538985636e-09  5.135678727635724e-08  1.0000
  O   O1        1.0  0.2520542019924116  0.2520543650919358  0.747945685862854  1.0000
  O   O2        1.0  0.7479457491166378  0.7479456774289819  0.2520542029202611  1.0000
  O   O3        1.0  0.7479456549177353  0.25205434933648474  0.2520543351207273  1.0000
  O   O4        1.0  0.2520542869265521  0.7479456177781408  0.7479456853722373  1.0000
  O   O5        1.0  0.25205429823896747  0.747945597502838  0.25205436987954255  1.0000
  O   O6        1.0  0.7479456709863601  0.2520543769091699  0.7479456451907869  1.0000
