data_image0
_chemical_formula_structural       Zr2BiS6
_chemical_formula_sum              "Zr2 Bi1 S6"
_cell_length_a       6.505505880877689
_cell_length_b       6.5055059263632655
_cell_length_c       6.50550600680705
_cell_angle_alpha    59.99999984070826
_cell_angle_beta     59.99999951451579
_cell_angle_gamma    59.999999726488134

_space_group_name_H-M_alt    "P 1"
_space_group_IT_number       1

loop_
  _space_group_symop_operation_xyz
  'x, y, z'

loop_
  _atom_site_type_symbol
  _atom_site_label
  _atom_site_symmetry_multiplicity
  _atom_site_fract_x
  _atom_site_fract_y
  _atom_site_fract_z
  _atom_site_occupancy
  Zr  Zr1       1.0  0.2500001041291208  0.2499998018677757  0.25000007337454017  1.0000
  Zr  Zr2       1.0  0.7500000111916644  0.7499999044997933  0.7500000828442511  1.0000
  Bi  Bi1       1.0  6.6876314344843136e-09  0.9999999905868592  3.210594356749858e-08  1.0000
  S   S1        1.0  0.26896889506915  0.2689689723721097  0.7310310814270702  1.0000
  S   S2        1.0  0.7310309931582287  0.7310311011079532  0.2689689309985242  1.0000
  S   S3        1.0  0.7310310203722589  0.2689689988952034  0.26896887973996736  1.0000
  S   S4        1.0  0.2689689350512727  0.731031149889986  0.7310309507595077  1.0000
  S   S5        1.0  0.26896900257381684  0.7310310942559101  0.2689689150738945  1.0000
  S   S6        1.0  0.7310310272195953  0.26896900181569056  0.7310310367931468  1.0000
