data_image0
_chemical_formula_structural       Zr2GaS6
_chemical_formula_sum              "Zr2 Ga1 S6"
_cell_length_a       6.247346918682331
_cell_length_b       6.247346876186107
_cell_length_c       6.24734690772241
_cell_angle_alpha    60.00000011137124
_cell_angle_beta     59.99999971466695
_cell_angle_gamma    60.00000012262333

_space_group_name_H-M_alt    "P 1"
_space_group_IT_number       1

loop_
  _space_group_symop_operation_xyz
  'x, y, z'

loop_
  _atom_site_type_symbol
  _atom_site_label
  _atom_site_symmetry_multiplicity
  _atom_site_fract_x
  _atom_site_fract_y
  _atom_site_fract_z
  _atom_site_occupancy
  Zr  Zr1       1.0  0.24999998700913018  0.2500000591052362  0.2499999746012544  1.0000
  Zr  Zr2       1.0  0.7500001206158977  0.7500002086824933  0.749999892353296  1.0000
  Ga  Ga1       1.0  0.9999999885930481  0.9999999843166081  2.1548569302585154e-08  1.0000
  S   S1        1.0  0.25980789673568455  0.25980787242105147  0.7401921060544774  1.0000
  S   S2        1.0  0.740192183917719  0.7401920326882391  0.25980783887550174  1.0000
  S   S3        1.0  0.7401921127574205  0.25980782161664767  0.25980793071393116  1.0000
  S   S4        1.0  0.25980783513510897  0.7401920991760347  0.7401921255772123  1.0000
  S   S5        1.0  0.2598077824711184  0.740192140166208  0.25980794844354266  1.0000
  S   S6        1.0  0.7401920989945331  0.2598077747452023  0.7401921600084708  1.0000
