data_image0
_chemical_formula_structural       Zr2GaTe6
_chemical_formula_sum              "Zr2 Ga1 Te6"
_cell_length_a       7.084250952900238
_cell_length_b       7.084250828725505
_cell_length_c       7.08425085827474
_cell_angle_alpha    60.000000414592144
_cell_angle_beta     60.0000002877126
_cell_angle_gamma    60.00000049725144

_space_group_name_H-M_alt    "P 1"
_space_group_IT_number       1

loop_
  _space_group_symop_operation_xyz
  'x, y, z'

loop_
  _atom_site_type_symbol
  _atom_site_label
  _atom_site_symmetry_multiplicity
  _atom_site_fract_x
  _atom_site_fract_y
  _atom_site_fract_z
  _atom_site_occupancy
  Zr  Zr1       1.0  0.2500000670697084  0.2500000531593939  0.24999988711989338  1.0000
  Zr  Zr2       1.0  0.7500000062107595  0.7499999572053461  0.7499998190594063  1.0000
  Ga  Ga1       1.0  3.605674133503791e-08  0.9999999896270343  0.9999999758654572  1.0000
  Te  Te1       1.0  0.2625364016541615  0.2625364203777688  0.7374636126034161  1.0000
  Te  Te2       1.0  0.7374635816991624  0.7374635761563519  0.26253651811237627  1.0000
  Te  Te3       1.0  0.7374635731082226  0.2625363732085833  0.26253646008651005  1.0000
  Te  Te4       1.0  0.26253645066632175  0.7374635265111892  0.7374636522436441  1.0000
  Te  Te5       1.0  0.26253634993061925  0.7374636304468937  0.262536448415888  1.0000
  Te  Te6       1.0  0.737463532594302  0.2625364680880569  0.7374636266619985  1.0000
