data_image0
_chemical_formula_structural       Zr2NO6
_chemical_formula_sum              "Zr2 N1 O6"
_cell_length_a       4.621659408424674
_cell_length_b       4.621659607479727
_cell_length_c       4.621659318724686
_cell_angle_alpha    59.99999874023123
_cell_angle_beta     59.999999274425384
_cell_angle_gamma    60.00000013363666

_space_group_name_H-M_alt    "P 1"
_space_group_IT_number       1

loop_
  _space_group_symop_operation_xyz
  'x, y, z'

loop_
  _atom_site_type_symbol
  _atom_site_label
  _atom_site_symmetry_multiplicity
  _atom_site_fract_x
  _atom_site_fract_y
  _atom_site_fract_z
  _atom_site_occupancy
  Zr  Zr1       1.0  0.24999994518278962  0.2499995814115585  0.24999998779831725  1.0000
  Zr  Zr2       1.0  0.7499995694039086  0.7499999923898378  0.7500000479404331  1.0000
  N   N1        1.0  0.999999436358187  3.4450128819490905e-08  6.670487046978102e-07  1.0000
  O   O1        1.0  0.2549853153584148  0.2549848718458656  0.7450149344112688  1.0000
  O   O2        1.0  0.7450148788160623  0.7450157063096823  0.2549848543808702  1.0000
  O   O3        1.0  0.745015375827237  0.2549849231754062  0.2549846349998856  1.0000
  O   O4        1.0  0.2549852329264908  0.7450149209271086  0.745014898093951  1.0000
  O   O5        1.0  0.2549849225333246  0.7450151303248094  0.25498495420755574  1.0000
  O   O6        1.0  0.7450153351723239  0.2549848674783325  0.7450149956275878  1.0000
