data_image0
_chemical_formula_structural       Zr2SbTe6
_chemical_formula_sum              "Zr2 Sb1 Te6"
_cell_length_a       7.294182317316345
_cell_length_b       7.294182507472581
_cell_length_c       7.294182323732844
_cell_angle_alpha    60.00000043339021
_cell_angle_beta     60.000000316097754
_cell_angle_gamma    60.00000015826432

_space_group_name_H-M_alt    "P 1"
_space_group_IT_number       1

loop_
  _space_group_symop_operation_xyz
  'x, y, z'

loop_
  _atom_site_type_symbol
  _atom_site_label
  _atom_site_symmetry_multiplicity
  _atom_site_fract_x
  _atom_site_fract_y
  _atom_site_fract_z
  _atom_site_occupancy
  Zr  Zr1       1.0  0.24999990562240276  0.2500001755361978  0.24999992890047168  1.0000
  Zr  Zr2       1.0  0.7499999723081507  0.7499998600174955  0.7500000621952302  1.0000
  Sb  Sb1       1.0  0.9999999822984423  1.5111637076344413e-08  0.9999999958111379  1.0000
  Te  Te1       1.0  0.2681805310319343  0.2681806454095117  0.7318194221243247  1.0000
  Te  Te2       1.0  0.7318194926510929  0.7318193565627651  0.2681805745788506  1.0000
  Te  Te3       1.0  0.731819425967471  0.2681806086520028  0.2681805667953657  1.0000
  Te  Te4       1.0  0.26818063311867163  0.7318193630969998  0.7318194588498677  1.0000
  Te  Te5       1.0  0.2681806242715803  0.7318193658035415  0.2681805645215225  1.0000
  Te  Te6       1.0  0.7318194283863617  0.2681806109826736  0.7318194261743597  1.0000
