data_image0
_chemical_formula_structural       Zr2SbS6
_chemical_formula_sum              "Zr2 Sb1 S6"
_cell_length_a       6.4769740305147065
_cell_length_b       6.476974083284783
_cell_length_c       6.476974026025975
_cell_angle_alpha    60.00000039186773
_cell_angle_beta     60.00000101925465
_cell_angle_gamma    59.99999912321437

_space_group_name_H-M_alt    "P 1"
_space_group_IT_number       1

loop_
  _space_group_symop_operation_xyz
  'x, y, z'

loop_
  _atom_site_type_symbol
  _atom_site_label
  _atom_site_symmetry_multiplicity
  _atom_site_fract_x
  _atom_site_fract_y
  _atom_site_fract_z
  _atom_site_occupancy
  Zr  Zr1       1.0  0.2500000522904867  0.2500004151141443  0.24999972158487616  1.0000
  Zr  Zr2       1.0  0.7500000187361714  0.7500000124616997  0.7499998857730469  1.0000
  Sb  Sb1       1.0  2.400415061988175e-08  1.8909213343064304e-08  0.9999999831751107  1.0000
  S   S1        1.0  0.26415304216180563  0.26415308644559937  0.7358469246019869  1.0000
  S   S2        1.0  0.7358470274499899  0.7358468854181934  0.26415306571247743  1.0000
  S   S3        1.0  0.7358468482078582  0.26415302675687324  0.2641531203012704  1.0000
  S   S4        1.0  0.2641531294411317  0.7358467503420192  0.7358471229961364  1.0000
  S   S5        1.0  0.2641529372968124  0.7358467723863469  0.2641531642343596  1.0000
  S   S6        1.0  0.7358469045366344  0.2641530217308403  0.7358470134032714  1.0000
