data_image0
_chemical_formula_structural       Zr2SbO6
_chemical_formula_sum              "Zr2 Sb1 O6"
_cell_length_a       5.267329425652111
_cell_length_b       5.267329277159275
_cell_length_c       5.267329260054393
_cell_angle_alpha    59.99999902373441
_cell_angle_beta     60.00000253606592
_cell_angle_gamma    60.00000057410302

_space_group_name_H-M_alt    "P 1"
_space_group_IT_number       1

loop_
  _space_group_symop_operation_xyz
  'x, y, z'

loop_
  _atom_site_type_symbol
  _atom_site_label
  _atom_site_symmetry_multiplicity
  _atom_site_fract_x
  _atom_site_fract_y
  _atom_site_fract_z
  _atom_site_occupancy
  Zr  Zr1       1.0  0.2500001044123063  0.25000019140336205  0.24999951303551013  1.0000
  Zr  Zr2       1.0  0.7499992894865196  0.7500003440179825  0.7500002330321474  1.0000
  Sb  Sb1       1.0  0.9999999815544156  9.300689981292295e-09  0.9999999798920076  1.0000
  O   O1        1.0  0.2580181097959211  0.25801798398630976  0.7419820830004035  1.0000
  O   O2        1.0  0.7419821392487184  0.7419817748274432  0.2580179959032437  1.0000
  O   O3        1.0  0.7419819751043395  0.25801771537335216  0.25801836777437476  1.0000
  O   O4        1.0  0.25801826623535984  0.7419819876362601  0.741981856793533  1.0000
  O   O5        1.0  0.25801831554633003  0.7419819033108425  0.25801775621680967  1.0000
  O   O6        1.0  0.741981748951205  0.258018106621533  0.741982222953738  1.0000
