data_image0
_chemical_formula_structural       Zr2YO6
_chemical_formula_sum              "Zr2 Y1 O6"
_cell_length_a       5.368072591347657
_cell_length_b       5.3680726111074755
_cell_length_c       5.368072428497394
_cell_angle_alpha    60.00000107425221
_cell_angle_beta     59.99999986045143
_cell_angle_gamma    60.00000321485455

_space_group_name_H-M_alt    "P 1"
_space_group_IT_number       1

loop_
  _space_group_symop_operation_xyz
  'x, y, z'

loop_
  _atom_site_type_symbol
  _atom_site_label
  _atom_site_symmetry_multiplicity
  _atom_site_fract_x
  _atom_site_fract_y
  _atom_site_fract_z
  _atom_site_occupancy
  Zr  Zr1       1.0  0.25000015061018205  0.2499998956733302  0.2500002085317329  1.0000
  Zr  Zr2       1.0  0.7499999868341743  0.7499996687676912  0.7500006045554223  1.0000
  Y   Y1        1.0  0.9999999915486593  0.999999954369289  4.0081088436671334e-08  1.0000
  O   O1        1.0  0.2721815323907583  0.27218139966952587  0.7278182803065139  1.0000
  O   O2        1.0  0.7278183525451483  0.7278187351553685  0.27218132504933307  1.0000
  O   O3        1.0  0.7278185061025322  0.2721818094411989  0.2721811197532578  1.0000
  O   O4        1.0  0.27218140744563496  0.7278185170326822  0.7278185412670456  1.0000
  O   O5        1.0  0.27218149361145905  0.7278185130467344  0.27218143816290363  1.0000
  O   O6        1.0  0.7278185752525308  0.27218148944910553  0.72781846739499  1.0000
