data_image0
_chemical_formula_structural       Zr2YSe6
_chemical_formula_sum              "Zr2 Y1 Se6"
_cell_length_a       6.712836284282736
_cell_length_b       6.712836275925705
_cell_length_c       6.712836358493932
_cell_angle_alpha    59.999999549786956
_cell_angle_beta     60.000000153200276
_cell_angle_gamma    60.00000061502384

_space_group_name_H-M_alt    "P 1"
_space_group_IT_number       1

loop_
  _space_group_symop_operation_xyz
  'x, y, z'

loop_
  _atom_site_type_symbol
  _atom_site_label
  _atom_site_symmetry_multiplicity
  _atom_site_fract_x
  _atom_site_fract_y
  _atom_site_fract_z
  _atom_site_occupancy
  Zr  Zr1       1.0  0.2500002927414194  0.24999991470456215  0.24999991218455084  1.0000
  Zr  Zr2       1.0  0.7499998749750724  0.7500002768624118  0.749999962865779  1.0000
  Y   Y1        1.0  4.880783135337605e-08  0.9999999361431317  0.9999999553856044  1.0000
  Se  Se1       1.0  0.27075588269762213  0.2707558536424831  0.7292441270686995  1.0000
  Se  Se2       1.0  0.729244106073872  0.7292442503493549  0.27075580824721646  1.0000
  Se  Se3       1.0  0.7292440126591894  0.2707557910396753  0.27075598169827275  1.0000
  Se  Se4       1.0  0.27075577242657717  0.7292441396263738  0.7292441912829485  1.0000
  Se  Se5       1.0  0.27075591011556593  0.7292441115588774  0.2707558260718411  1.0000
  Se  Se6       1.0  0.7292440949928942  0.2707557370054852  0.7292442332583795  1.0000
