data_image0
_chemical_formula_structural       Zr2YS6
_chemical_formula_sum              "Zr2 Y1 S6"
_cell_length_a       6.387416671805929
_cell_length_b       6.387416658483728
_cell_length_c       6.387416729363108
_cell_angle_alpha    60.00000058936025
_cell_angle_beta     60.000000356945186
_cell_angle_gamma    60.000001010544494

_space_group_name_H-M_alt    "P 1"
_space_group_IT_number       1

loop_
  _space_group_symop_operation_xyz
  'x, y, z'

loop_
  _atom_site_type_symbol
  _atom_site_label
  _atom_site_symmetry_multiplicity
  _atom_site_fract_x
  _atom_site_fract_y
  _atom_site_fract_z
  _atom_site_occupancy
  Zr  Zr1       1.0  0.24999990978575531  0.2499999473066763  0.25000006280646153  1.0000
  Zr  Zr2       1.0  0.7500000968240021  0.7500001007735947  0.749999836119784  1.0000
  Y   Y1        1.0  1.4662696654558629e-08  2.1091771911292673e-08  0.9999999789916096  1.0000
  S   S1        1.0  0.27120064582110276  0.2712006759024844  0.7287993409751929  1.0000
  S   S2        1.0  0.7287993261872288  0.7287992590491928  0.2712007320130625  1.0000
  S   S3        1.0  0.7287993303917336  0.27120063155351726  0.27120076171904145  1.0000
  S   S4        1.0  0.27120063328890365  0.7287993609211736  0.7287992397042102  1.0000
  S   S5        1.0  0.27120067016601596  0.7287993225785381  0.2712007802388942  1.0000
  S   S6        1.0  0.7287993674140328  0.2712006814007568  0.7287992520645228  1.0000
