9
Lattice="4.424293491500667 0.14116631339278482 1.9332353055323197 2.4980727872500514 1.1195045117534836 1.94015931748335 -0.22888984769869852 -0.6088889757925661 2.4231898883756706" Properties=species:S:1:pos:R:3:forces:R:3 energy=-150588211200.0 free_energy=-150588211200.0 stress="0.0 -4537131008.0 -653581248.0 -4537131008.0 0.0 3285214976.0 -653581248.0 3285214976.0 0.0" pbc="T T T"
Ni       0.12765708       0.09130902       1.83774031 -112267182080.00000000 -36630618112.00000000 -245777956864.00000000
Ni       4.07111376       1.01652867       3.80880672 36308525056.00000000 -32806643712.00000000 51934978048.00000000
N       -1.89923820      -0.08926931      -1.88912269 -9725747200.00000000 230984974336.00000000 85938733056.00000000
O        2.18578804       0.22484482       2.64025292 3721525248.00000000 -196640571392.00000000 -61784965120.00000000
O        7.36161182       0.56395148       5.03664773 1404054528.00000000 30022905856.00000000 36925263872.00000000
O        4.21950405      -0.05576475       0.29800264 85665898496.00000000 -251826634752.00000000 -258221359104.00000000
O        2.48489563       0.89505693       3.53937049 58100789248.00000000 135358873600.00000000 63167799296.00000000
O        2.15283226      -0.00000862       2.45071770 -143642378240.00000000 136234713088.00000000 134814277632.00000000
O       -0.08617621       0.25102789       1.60476213 80434511872.00000000 -14697086976.00000000 193003077632.00000000
