9
Lattice="2.877119623022294 -0.009945304198554862 -0.07120062267997698 0.9230581180276445 1.720277268388795 0.9121259441789782 0.01607019439451362 -1.0915622822101616 2.3646535949396226" Properties=species:S:1:pos:R:3:forces:R:3 energy=-2849338818560.0 free_energy=-2849338818560.0 stress="0.0 0.0 0.0 0.0 0.0 0.0 0.0 0.0 0.0" pbc="T T T"
S       -1.12077566       0.66580304       1.11814454 -5686556622848.00000000 -3394265677824.00000000 5219095150592.00000000
S        7.44606008       0.49239838       0.83763744 -8407151017984.00000000 9839149318144.00000000 1187697262592.00000000
N        1.10851503      -1.68209723      -0.72710711 -730455736320.00000000 -304702980096.00000000 159313936384.00000000
O        0.65053659      -0.74341216       0.64996629 1287643987968.00000000 -1004762824704.00000000 -2288977707008.00000000
O        0.84117082      -2.04211511       2.60604363 4213633974272.00000000 -2427399962624.00000000 -4879963652096.00000000
O        3.60472914      -1.26491501      -0.03338922 13182894604288.00000000 -3208631549952.00000000 1625306169344.00000000
O        2.00260472      -1.15136949       2.13711287 -243826786304.00000000 -181852389376.00000000 193411907584.00000000
O        2.09823967       0.25612270       1.09666772 -3101228793856.00000000 992837500928.00000000 -1062854066176.00000000
O        3.87372401       0.74968991      -0.09994747 -514958163968.00000000 -310370697216.00000000 -153035079680.00000000
