9
Lattice="4.065735338947109 -2.294049450571031 2.5961523943352858 -0.6310819775981078 5.294937703630702 2.343686991998664 -1.3187482365353407 0.9031364064681727 4.341640284013779" Properties=species:S:1:pos:R:3:forces:R:3 energy=-484163072.0 free_energy=-484163072.0 stress="8613914.0 4665735.0 -3659314.25 4665735.0 5070627.5 -2296597.0 -3659314.25 -2296597.0 980589.125" pbc="T T T"
Ta       7.29021639       1.14926494       1.78933883 -59873072.00000000 35910156.00000000 35351788.00000000
Ta       5.22632547       4.13216661       6.20005536 -10268391424.00000000 9645686784.00000000 -11721721856.00000000
As       3.59311866       0.63053845      -3.25237094 -985974208.00000000 -1376443776.00000000 682320128.00000000
F        5.70031332       2.44462396       2.30018307 57516068.00000000 -52027848.00000000 -49122280.00000000
F        6.53117817       3.21937248       1.86198755 11158212608.00000000 -8226588160.00000000 11147697152.00000000
F        5.38317288       2.82252699       2.14158434 88412608.00000000 22219944.00000000 -71819240.00000000
F        4.61344443       3.07586627       5.07380838 -35479080.00000000 -18556598.00000000 2754982.00000000
F        4.83700817       3.40194849       2.14364112 78701928.00000000 -30768384.00000000 -20817154.00000000
F        4.81097179       0.28710480       2.75581988 -33130380.00000000  562764.25000000 -4641204.00000000
