data_image0
_chemical_formula_structural       Ag2AuCl6
_chemical_formula_sum              "Ag2 Au1 Cl6"
_cell_length_a       6.678665656662527
_cell_length_b       6.6786656588638245
_cell_length_c       6.6786657444082245
_cell_angle_alpha    59.99999932381414
_cell_angle_beta     59.99999951435151
_cell_angle_gamma    59.99999972189514

_space_group_name_H-M_alt    "P 1"
_space_group_IT_number       1

loop_
  _space_group_symop_operation_xyz
  'x, y, z'

loop_
  _atom_site_type_symbol
  _atom_site_label
  _atom_site_symmetry_multiplicity
  _atom_site_fract_x
  _atom_site_fract_y
  _atom_site_fract_z
  _atom_site_occupancy
  Ag  Ag1       1.0  0.24999999262571615  0.25000000270897443  0.24999999543994764  1.0000
  Ag  Ag2       1.0  0.7499999964939605  0.7499999989578396  0.7499999935744192  1.0000
  Au  Au1       1.0  3.0824262727161363e-08  0.9999999853294662  1.737732155391582e-08  1.0000
  Cl  Cl1       1.0  0.2561302960754758  0.25613028748953426  0.7438697099645335  1.0000
  Cl  Cl2       1.0  0.7438697024919294  0.7438697325154471  0.25613027713532593  1.0000
  Cl  Cl3       1.0  0.7438697109455804  0.25613029255720743  0.2561303045223866  1.0000
  Cl  Cl4       1.0  0.25613032048965956  0.7438696962728898  0.7438696772390823  1.0000
  Cl  Cl5       1.0  0.2561302604918254  0.7438697214144369  0.2561303265565625  1.0000
  Cl  Cl6       1.0  0.7438697014712222  0.2561302839200105  0.7438696921699631  1.0000
