data_image0
_chemical_formula_structural       Ag2AuBr6
_chemical_formula_sum              "Ag2 Au1 Br6"
_cell_length_a       7.048234984494821
_cell_length_b       7.048235092741356
_cell_length_c       7.048235059279096
_cell_angle_alpha    59.99999975818129
_cell_angle_beta     59.99999976122418
_cell_angle_gamma    60.00000012529765

_space_group_name_H-M_alt    "P 1"
_space_group_IT_number       1

loop_
  _space_group_symop_operation_xyz
  'x, y, z'

loop_
  _atom_site_type_symbol
  _atom_site_label
  _atom_site_symmetry_multiplicity
  _atom_site_fract_x
  _atom_site_fract_y
  _atom_site_fract_z
  _atom_site_occupancy
  Ag  Ag1       1.0  0.24999997642951946  0.24999999012428717  0.2500000219078165  1.0000
  Ag  Ag2       1.0  0.7499999825568782  0.7500000120767442  0.750000008305784  1.0000
  Au  Au1       1.0  4.453178367482344e-08  0.999999984361044  0.9999999969039455  1.0000
  Br  Br1       1.0  0.25955879157435513  0.2595587677833473  0.7404412198611215  1.0000
  Br  Br2       1.0  0.7404412245531995  0.7404412448436548  0.259558759543376  1.0000
  Br  Br3       1.0  0.7404412114968506  0.25955878478581074  0.25955876712190074  1.0000
  Br  Br4       1.0  0.2595587745623849  0.740441229578853  0.740441237798285  1.0000
  Br  Br5       1.0  0.2595587639753974  0.7404412302194874  0.25955876205200173  1.0000
  Br  Br6       1.0  0.7404412246988559  0.2595587615555733  0.7404412273171684  1.0000
