data_image0
_chemical_formula_structural       Ag2AuI6
_chemical_formula_sum              "Ag2 Au1 I6"
_cell_length_a       7.6079884521719
_cell_length_b       7.607988520665693
_cell_length_c       7.607988379698856
_cell_angle_alpha    60.000000648872806
_cell_angle_beta     59.999999907529464
_cell_angle_gamma    60.00000037207688

_space_group_name_H-M_alt    "P 1"
_space_group_IT_number       1

loop_
  _space_group_symop_operation_xyz
  'x, y, z'

loop_
  _atom_site_type_symbol
  _atom_site_label
  _atom_site_symmetry_multiplicity
  _atom_site_fract_x
  _atom_site_fract_y
  _atom_site_fract_z
  _atom_site_occupancy
  Ag  Ag1       1.0  0.2500000007519518  0.2500000189917098  0.24999998681697724  1.0000
  Ag  Ag2       1.0  0.7500000031002526  0.749999986143301  0.7500000059599105  1.0000
  Au  Au1       1.0  0.9999999787357389  2.7366842963981286e-08  3.3752130233318076e-08  1.0000
  I   I1        1.0  0.26370414527217095  0.26370415647823736  0.7362958668254311  1.0000
  I   I2        1.0  0.7362958611709904  0.7362958454371449  0.2637041236369767  1.0000
  I   I3        1.0  0.736295853613042  0.2637041491188016  0.26370413608964055  1.0000
  I   I4        1.0  0.2637041689282625  0.7362958045021519  0.7362958533836073  1.0000
  I   I5        1.0  0.2637041527631565  0.7362958406074391  0.26370415812727843  1.0000
  I   I6        1.0  0.73629583465423  0.2637041774060858  0.7362958337989456  1.0000
