data_image0
_chemical_formula_structural       Ag2BeBr6
_chemical_formula_sum              "Ag2 Be1 Br6"
_cell_length_a       6.9162017838157634
_cell_length_b       6.916201981603551
_cell_length_c       6.916201810298829
_cell_angle_alpha    59.99999966220711
_cell_angle_beta     60.000000814468486
_cell_angle_gamma    60.00000042803288

_space_group_name_H-M_alt    "P 1"
_space_group_IT_number       1

loop_
  _space_group_symop_operation_xyz
  'x, y, z'

loop_
  _atom_site_type_symbol
  _atom_site_label
  _atom_site_symmetry_multiplicity
  _atom_site_fract_x
  _atom_site_fract_y
  _atom_site_fract_z
  _atom_site_occupancy
  Ag  Ag1       1.0  0.2500000037105453  0.24999996933912513  0.2500000007554809  1.0000
  Ag  Ag2       1.0  0.7500000213833125  0.7500000124966071  0.7499999911691578  1.0000
  Be  Be1       1.0  0.9999999853616979  8.854172322814132e-09  0.9999999985544238  1.0000
  Br  Br1       1.0  0.24712890524520525  0.24712896023431052  0.7528710783806659  1.0000
  Br  Br2       1.0  0.7528710726611525  0.7528711030598063  0.24712891231321282  1.0000
  Br  Br3       1.0  0.7528710398806413  0.24712894667454344  0.2471289286104335  1.0000
  Br  Br4       1.0  0.24712890917159092  0.7528710829737191  0.7528710817663928  1.0000
  Br  Br5       1.0  0.24712896524503092  0.7528710205730096  0.24712893541792938  1.0000
  Br  Br6       1.0  0.7528710769668934  0.2471289099085236  0.752871086637699  1.0000
