data_image0
_chemical_formula_structural       Ag2BeI6
_chemical_formula_sum              "Ag2 Be1 I6"
_cell_length_a       7.440580261323882
_cell_length_b       7.4405801515322265
_cell_length_c       7.440580268917697
_cell_angle_alpha    60.000000125918056
_cell_angle_beta     60.00000008423827
_cell_angle_gamma    60.000000226137914

_space_group_name_H-M_alt    "P 1"
_space_group_IT_number       1

loop_
  _space_group_symop_operation_xyz
  'x, y, z'

loop_
  _atom_site_type_symbol
  _atom_site_label
  _atom_site_symmetry_multiplicity
  _atom_site_fract_x
  _atom_site_fract_y
  _atom_site_fract_z
  _atom_site_occupancy
  Ag  Ag1       1.0  0.2499999968189479  0.25000002350521267  0.2499999785897028  1.0000
  Ag  Ag2       1.0  0.7499999961642035  0.7499999882139331  0.7500000345454345  1.0000
  Be  Be1       1.0  5.6839163876118026e-08  5.7611193946391484e-08  0.9999999373988966  1.0000
  I   I1        1.0  0.24548622450670401  0.24548622776396942  0.7545137727429115  1.0000
  I   I2        1.0  0.7545136510353601  0.7545137032995046  0.24548632196884923  1.0000
  I   I3        1.0  0.7545137693020149  0.24548625461388723  0.2454862583965553  1.0000
  I   I4        1.0  0.24548628329599392  0.754513750521122  0.754513697311654  1.0000
  I   I5        1.0  0.2454863062304684  0.7545137404258706  0.24548625309639827  1.0000
  I   I6        1.0  0.754513720173588  0.24548625483293413  0.7545137461825321  1.0000
