data_image0
_chemical_formula_structural       Ag2BeCl6
_chemical_formula_sum              "Ag2 Be1 Cl6"
_cell_length_a       6.549408852453289
_cell_length_b       6.549408887829796
_cell_length_c       6.549408915629131
_cell_angle_alpha    59.999998695376604
_cell_angle_beta     59.999999201668174
_cell_angle_gamma    59.999999168666776

_space_group_name_H-M_alt    "P 1"
_space_group_IT_number       1

loop_
  _space_group_symop_operation_xyz
  'x, y, z'

loop_
  _atom_site_type_symbol
  _atom_site_label
  _atom_site_symmetry_multiplicity
  _atom_site_fract_x
  _atom_site_fract_y
  _atom_site_fract_z
  _atom_site_occupancy
  Ag  Ag1       1.0  0.25000000437382497  0.24999998031053508  0.24999998503727677  1.0000
  Ag  Ag2       1.0  0.7499999953288721  0.7500000419120515  0.7500000234514924  1.0000
  Be  Be1       1.0  6.594518091992241e-08  2.431010737511544e-08  0.9999999747214748  1.0000
  Cl  Cl1       1.0  0.2482858656668015  0.24828590071577544  0.7517140899625765  1.0000
  Cl  Cl2       1.0  0.7517141690129661  0.7517140747566043  0.24828587402653496  1.0000
  Cl  Cl3       1.0  0.7517141333739759  0.2482858841097422  0.24828582910922342  1.0000
  Cl  Cl4       1.0  0.24828583439808252  0.7517141175427534  0.7517141827270807  1.0000
  Cl  Cl5       1.0  0.24828582122335324  0.751714132625274  0.24828588580408564  1.0000
  Cl  Cl6       1.0  0.7517140816363012  0.24828585219714705  0.7517141669034583  1.0000
