data_image0
_chemical_formula_structural       Ag2CuI6
_chemical_formula_sum              "Ag2 Cu1 I6"
_cell_length_a       7.422405710095491
_cell_length_b       7.422405781138696
_cell_length_c       7.422405610863481
_cell_angle_alpha    60.00000062292936
_cell_angle_beta     60.000000635692004
_cell_angle_gamma    60.00000065807294

_space_group_name_H-M_alt    "P 1"
_space_group_IT_number       1

loop_
  _space_group_symop_operation_xyz
  'x, y, z'

loop_
  _atom_site_type_symbol
  _atom_site_label
  _atom_site_symmetry_multiplicity
  _atom_site_fract_x
  _atom_site_fract_y
  _atom_site_fract_z
  _atom_site_occupancy
  Ag  Ag1       1.0  0.24999999464659933  0.25000004242646984  0.2499999700621192  1.0000
  Ag  Ag2       1.0  0.750000018418607  0.7500000051746332  0.7500000119320417  1.0000
  Cu  Cu1       1.0  0.999999995599828  1.3200516304620171e-08  1.8503453563492294e-08  1.0000
  I   I1        1.0  0.2547923666465721  0.25479239800614795  0.745207619015294  1.0000
  I   I2        1.0  0.7452076125088151  0.7452075786421796  0.2547923790338176  1.0000
  I   I3        1.0  0.745207646596019  0.2547923693199232  0.2547923962652114  1.0000
  I   I4        1.0  0.25479240038178363  0.7452075858775652  0.7452076028490099  1.0000
  I   I5        1.0  0.25479237303087543  0.7452076463941336  0.25479239059533365  1.0000
  I   I6        1.0  0.7452075910070157  0.2547923616054203  0.7452076128096337  1.0000
