data_image0
_chemical_formula_structural       Ag2CrBr6
_chemical_formula_sum              "Ag2 Cr1 Br6"
_cell_length_a       6.9845865854983025
_cell_length_b       6.98458651804118
_cell_length_c       6.9845866495280795
_cell_angle_alpha    60.000001019815414
_cell_angle_beta     59.99999986246578
_cell_angle_gamma    60.00000103982305

_space_group_name_H-M_alt    "P 1"
_space_group_IT_number       1

loop_
  _space_group_symop_operation_xyz
  'x, y, z'

loop_
  _atom_site_type_symbol
  _atom_site_label
  _atom_site_symmetry_multiplicity
  _atom_site_fract_x
  _atom_site_fract_y
  _atom_site_fract_z
  _atom_site_occupancy
  Ag  Ag1       1.0  0.2499999770831516  0.25000003703127405  0.24999999281375715  1.0000
  Ag  Ag2       1.0  0.7500000081339111  0.7500000093910212  0.7499999851235468  1.0000
  Cr  Cr1       1.0  2.8689110438730077e-08  0.9999999982465025  0.9999999249680636  1.0000
  Br  Br1       1.0  0.24639800258678948  0.24639795371164616  0.7536020267173432  1.0000
  Br  Br2       1.0  0.7536019949219549  0.7536020260777796  0.2463979884126217  1.0000
  Br  Br3       1.0  0.7536019531479495  0.2463980303993239  0.2463980085014468  1.0000
  Br  Br4       1.0  0.2463979658403319  0.7536020212834613  0.7536020471668935  1.0000
  Br  Br5       1.0  0.2463980499627713  0.753601935002902  0.24639800915806148  1.0000
  Br  Br6       1.0  0.7536020180840202  0.2463979869211378  0.7536020325652231  1.0000
