data_image0
_chemical_formula_structural       Ag2CrI6
_chemical_formula_sum              "Ag2 Cr1 I6"
_cell_length_a       7.547252770730542
_cell_length_b       7.547252781202887
_cell_length_c       7.547252851258406
_cell_angle_alpha    59.9999998896799
_cell_angle_beta     59.999999100959286
_cell_angle_gamma    59.999999682026456

_space_group_name_H-M_alt    "P 1"
_space_group_IT_number       1

loop_
  _space_group_symop_operation_xyz
  'x, y, z'

loop_
  _atom_site_type_symbol
  _atom_site_label
  _atom_site_symmetry_multiplicity
  _atom_site_fract_x
  _atom_site_fract_y
  _atom_site_fract_z
  _atom_site_occupancy
  Ag  Ag1       1.0  0.24999998469121734  0.25000000466541156  0.25000000391576854  1.0000
  Ag  Ag2       1.0  0.7499999977159948  0.7500000253556183  0.7499999471468506  1.0000
  Cr  Cr1       1.0  5.0520574005250105e-08  0.9999999448258494  0.9999998592283625  1.0000
  I   I1        1.0  0.24820664998748487  0.24820663111422855  0.7517933864517792  1.0000
  I   I2        1.0  0.7517933649201469  0.7517933794335724  0.24820666939601982  1.0000
  I   I3        1.0  0.7517933200219972  0.24820665197590366  0.2482066993550378  1.0000
  I   I4        1.0  0.24820661243741068  0.7517933764223579  0.7517934020414977  1.0000
  I   I5        1.0  0.24820663908022506  0.7517933369363935  0.24820668559790632  1.0000
  I   I6        1.0  0.7517933706197151  0.24820665251540897  0.7517933555770439  1.0000
