data_image0
_chemical_formula_structural       Ag2CdCl6
_chemical_formula_sum              "Ag2 Cd1 Cl6"
_cell_length_a       6.758769905001407
_cell_length_b       6.7587700137259805
_cell_length_c       6.758769975902486
_cell_angle_alpha    59.9999998458365
_cell_angle_beta     59.999999263194695
_cell_angle_gamma    59.99999987504402

_space_group_name_H-M_alt    "P 1"
_space_group_IT_number       1

loop_
  _space_group_symop_operation_xyz
  'x, y, z'

loop_
  _atom_site_type_symbol
  _atom_site_label
  _atom_site_symmetry_multiplicity
  _atom_site_fract_x
  _atom_site_fract_y
  _atom_site_fract_z
  _atom_site_occupancy
  Ag  Ag1       1.0  0.25000000343239487  0.24999998875494978  0.24999999543416074  1.0000
  Ag  Ag2       1.0  0.7499999776116265  0.7500000079427466  0.7499999892041083  1.0000
  Cd  Cd1       1.0  1.0043417196128398e-08  1.0872494756164445e-08  2.505146370632482e-08  1.0000
  Cl  Cl1       1.0  0.26230597710867815  0.26230606434140047  0.7376940390978345  1.0000
  Cl  Cl2       1.0  0.7376940002756166  0.7376940048395945  0.2623060516867683  1.0000
  Cl  Cl3       1.0  0.7376939731579577  0.26230599501630225  0.2623060670340206  1.0000
  Cl  Cl4       1.0  0.26230605015020764  0.7376939056410228  0.737693922298975  1.0000
  Cl  Cl5       1.0  0.2623060459622773  0.7376939955612982  0.2623059950314  1.0000
  Cl  Cl6       1.0  0.7376939658160238  0.2623060319418001  0.7376939144502537  1.0000
