data_image0
_chemical_formula_structural       Ag2CdBr6
_chemical_formula_sum              "Ag2 Cd1 Br6"
_cell_length_a       7.204168601700178
_cell_length_b       7.204168672767317
_cell_length_c       7.204168453827197
_cell_angle_alpha    59.99999984385761
_cell_angle_beta     59.9999999871023
_cell_angle_gamma    59.999999547158765

_space_group_name_H-M_alt    "P 1"
_space_group_IT_number       1

loop_
  _space_group_symop_operation_xyz
  'x, y, z'

loop_
  _atom_site_type_symbol
  _atom_site_label
  _atom_site_symmetry_multiplicity
  _atom_site_fract_x
  _atom_site_fract_y
  _atom_site_fract_z
  _atom_site_occupancy
  Ag  Ag1       1.0  0.25000003594200615  0.24999998322752495  0.2499999554160122  1.0000
  Ag  Ag2       1.0  0.7499999991896171  0.7499999870836799  0.7499999990316526  1.0000
  Cd  Cd1       1.0  0.9999999922608871  1.3600402169845991e-08  0.999999984576588  1.0000
  Br  Br1       1.0  0.26429154925710474  0.26429154718471576  0.7357084683672631  1.0000
  Br  Br2       1.0  0.735708430875725  0.7357084775280968  0.264291533573893  1.0000
  Br  Br3       1.0  0.735708446705987  0.2642915553089186  0.2642915381010747  1.0000
  Br  Br4       1.0  0.2642915799420663  0.7357084116021855  0.735708456990557  1.0000
  Br  Br5       1.0  0.2642915420333759  0.7357084726782857  0.2642915481248629  1.0000
  Br  Br6       1.0  0.7357084282880623  0.2642915622348281  0.7357085119214192  1.0000
