data_image0
_chemical_formula_structural       Ag2CoI6
_chemical_formula_sum              "Ag2 Co1 I6"
_cell_length_a       7.407009461034453
_cell_length_b       7.407009703367795
_cell_length_c       7.407009703543746
_cell_angle_alpha    59.99999892361977
_cell_angle_beta     59.999999893046976
_cell_angle_gamma    60.00000148197722

_space_group_name_H-M_alt    "P 1"
_space_group_IT_number       1

loop_
  _space_group_symop_operation_xyz
  'x, y, z'

loop_
  _atom_site_type_symbol
  _atom_site_label
  _atom_site_symmetry_multiplicity
  _atom_site_fract_x
  _atom_site_fract_y
  _atom_site_fract_z
  _atom_site_occupancy
  Ag  Ag1       1.0  0.25000001994042487  0.2499999845757105  0.2499999946145794  1.0000
  Ag  Ag2       1.0  0.750000004234755  0.7499999801830399  0.7500000186601306  1.0000
  Co  Co1       1.0  0.999999984945646  2.6455909382686726e-08  0.9999999983494394  1.0000
  I   I1        1.0  0.25006806705500495  0.25006800966134884  0.749931954224986  1.0000
  I   I2        1.0  0.7499319428844555  0.7499319931277718  0.2500680242011657  1.0000
  I   I3        1.0  0.7499319596126229  0.2500680287267381  0.25006805194909243  1.0000
  I   I4        1.0  0.2500680444693787  0.7499319542204506  0.7499319285261752  1.0000
  I   I5        1.0  0.2500680643378386  0.7499319406636727  0.2500680588185448  1.0000
  I   I6        1.0  0.7499319188161272  0.250068077006896  0.7499319714620944  1.0000
