data_image0
_chemical_formula_structural       Ag2CuF6
_chemical_formula_sum              "Ag2 Cu1 F6"
_cell_length_a       5.55951018691567
_cell_length_b       5.559510269795358
_cell_length_c       5.5595101213855
_cell_angle_alpha    60.00000113041662
_cell_angle_beta     59.99999980460903
_cell_angle_gamma    59.99999991843018

_space_group_name_H-M_alt    "P 1"
_space_group_IT_number       1

loop_
  _space_group_symop_operation_xyz
  'x, y, z'

loop_
  _atom_site_type_symbol
  _atom_site_label
  _atom_site_symmetry_multiplicity
  _atom_site_fract_x
  _atom_site_fract_y
  _atom_site_fract_z
  _atom_site_occupancy
  Ag  Ag1       1.0  0.24999997150867445  0.2499999901604591  0.2500000363895231  1.0000
  Ag  Ag2       1.0  0.7500000026196034  0.7499999616694861  0.7500000443456498  1.0000
  Cu  Cu1       1.0  7.343245349226854e-10  0.9999999977970272  0.999999957565053  1.0000
  F   F1        1.0  0.2386703294204118  0.2386703604480744  0.7613296506095408  1.0000
  F   F2        1.0  0.7613296615324738  0.761329653065102  0.23867034590372174  1.0000
  F   F3        1.0  0.7613296983626471  0.23867033641335667  0.2386702996172675  1.0000
  F   F4        1.0  0.23867029892555958  0.7613297079414355  0.7613296837036856  1.0000
  F   F5        1.0  0.23867033147742434  0.7613296943049895  0.2386703056043634  1.0000
  F   F6        1.0  0.761329718008942  0.23867029938143314  0.7613296571657783  1.0000
