data_image0
_chemical_formula_structural       Ag2CF6
_chemical_formula_sum              "Ag2 C1 F6"
_cell_length_a       5.278098849309804
_cell_length_b       5.278099533014212
_cell_length_c       5.278099487496357
_cell_angle_alpha    59.99999292563952
_cell_angle_beta     59.99999299512022
_cell_angle_gamma    59.999994575311746

_space_group_name_H-M_alt    "P 1"
_space_group_IT_number       1

loop_
  _space_group_symop_operation_xyz
  'x, y, z'

loop_
  _atom_site_type_symbol
  _atom_site_label
  _atom_site_symmetry_multiplicity
  _atom_site_fract_x
  _atom_site_fract_y
  _atom_site_fract_z
  _atom_site_occupancy
  Ag  Ag1       1.0  0.2500000495948494  0.24999997568492707  0.2500000788496972  1.0000
  Ag  Ag2       1.0  0.7499999148500043  0.7500001103686235  0.7499998620943319  1.0000
  C   C1        1.0  2.0773913630237313e-08  0.9999999048624469  1.4328062038026985e-07  1.0000
  F   F1        1.0  0.2108852638908779  0.21088523232253928  0.7891149632031911  1.0000
  F   F2        1.0  0.7891147447065103  0.7891148328471316  0.21088533934691728  1.0000
  F   F3        1.0  0.7891148387410003  0.21088516942469998  0.2108854902860705  1.0000
  F   F4        1.0  0.21088509781708192  0.7891148493364446  0.789114458460503  1.0000
  F   F5        1.0  0.21088494723280082  0.7891149467025806  0.2108854336411238  1.0000
  F   F6        1.0  0.7891150181865414  0.2108850117274345  0.789114566838193  1.0000
