data_image0
_chemical_formula_structural       Ag2CoBr6
_chemical_formula_sum              "Ag2 Co1 Br6"
_cell_length_a       6.9488444274835865
_cell_length_b       6.948844252196514
_cell_length_c       6.948844360538476
_cell_angle_alpha    60.00000030452232
_cell_angle_beta     60.00000020504474
_cell_angle_gamma    60.00000039563267

_space_group_name_H-M_alt    "P 1"
_space_group_IT_number       1

loop_
  _space_group_symop_operation_xyz
  'x, y, z'

loop_
  _atom_site_type_symbol
  _atom_site_label
  _atom_site_symmetry_multiplicity
  _atom_site_fract_x
  _atom_site_fract_y
  _atom_site_fract_z
  _atom_site_occupancy
  Ag  Ag1       1.0  0.24999997156377413  0.24999999135058995  0.25000002991278836  1.0000
  Ag  Ag2       1.0  0.749999995778413  0.7500000498399549  0.7499999638108166  1.0000
  Co  Co1       1.0  3.118669672029217e-08  0.999999991187421  3.77419402101535e-08  1.0000
  Br  Br1       1.0  0.24732725140620868  0.24732721657724194  0.7526727845206667  1.0000
  Br  Br2       1.0  0.7526727717806034  0.7526727717378258  0.24732722642651098  1.0000
  Br  Br3       1.0  0.7526727452201324  0.24732723004536222  0.24732723927319372  1.0000
  Br  Br4       1.0  0.24732723769959242  0.7526727494571253  0.7526727631147887  1.0000
  Br  Br5       1.0  0.24732723325285846  0.752672774503727  0.2473272309117159  1.0000
  Br  Br6       1.0  0.7526727704800682  0.2473272173363717  0.7526727261190956  1.0000
