data_image0
_chemical_formula_structural       Ag2CaBr6
_chemical_formula_sum              "Ag2 Ca1 Br6"
_cell_length_a       7.39777057662856
_cell_length_b       7.397770623772034
_cell_length_c       7.397770684993683
_cell_angle_alpha    60.000001002177804
_cell_angle_beta     60.000000076518354
_cell_angle_gamma    59.99999904421006

_space_group_name_H-M_alt    "P 1"
_space_group_IT_number       1

loop_
  _space_group_symop_operation_xyz
  'x, y, z'

loop_
  _atom_site_type_symbol
  _atom_site_label
  _atom_site_symmetry_multiplicity
  _atom_site_fract_x
  _atom_site_fract_y
  _atom_site_fract_z
  _atom_site_occupancy
  Ag  Ag1       1.0  0.2500000226295412  0.2500000042868446  0.24999998426807374  1.0000
  Ag  Ag2       1.0  0.7499999868014889  0.7500000360383667  0.7499999925729405  1.0000
  Ca  Ca1       1.0  2.655114407135296e-08  0.9999999718554902  2.5128337176842894e-08  1.0000
  Br  Br1       1.0  0.2655832360264686  0.26558316162887  0.7344167947221542  1.0000
  Br  Br2       1.0  0.7344168198061739  0.7344168190962022  0.26558319006988174  1.0000
  Br  Br3       1.0  0.7344168027461025  0.2655831801642534  0.2655831393483127  1.0000
  Br  Br4       1.0  0.26558314555919  0.734416818771974  0.7344168738807174  1.0000
  Br  Br5       1.0  0.26558311992576794  0.7344168643069713  0.2655831358129626  1.0000
  Br  Br6       1.0  0.7344168335193237  0.26558313794037464  0.7344168650800573  1.0000
