data_image0
_chemical_formula_structural       Ag2CrI6
_chemical_formula_sum              "Ag2 Cr1 I6"
_cell_length_a       7.546253001790729
_cell_length_b       7.546252859295196
_cell_length_c       7.546253047172969
_cell_angle_alpha    59.99999930667286
_cell_angle_beta     60.00000073908335
_cell_angle_gamma    60.00000018892109

_space_group_name_H-M_alt    "P 1"
_space_group_IT_number       1

loop_
  _space_group_symop_operation_xyz
  'x, y, z'

loop_
  _atom_site_type_symbol
  _atom_site_label
  _atom_site_symmetry_multiplicity
  _atom_site_fract_x
  _atom_site_fract_y
  _atom_site_fract_z
  _atom_site_occupancy
  Ag  Ag1       1.0  0.2499999274072008  0.2500000413268592  0.24999997477092134  1.0000
  Ag  Ag2       1.0  0.7499999962325505  0.7499998675490825  0.7500001548984718  1.0000
  Cr  Cr1       1.0  0.9999999074316698  6.654234953264728e-08  3.421556528024329e-08  1.0000
  I   I1        1.0  0.24819281780350586  0.24819282794611802  0.751807164926824  1.0000
  I   I2        1.0  0.7518072145679813  0.7518072367363037  0.2481927635650918  1.0000
  I   I3        1.0  0.7518072821717531  0.24819279202976977  0.24819271720630245  1.0000
  I   I4        1.0  0.2481928085024912  0.7518071574207773  0.7518072384250116  1.0000
  I   I5        1.0  0.24819281531019083  0.751807255841282  0.24819272095755637  1.0000
  I   I6        1.0  0.7518072317609735  0.24819276015161487  0.7518072404312148  1.0000
