data_image0
_chemical_formula_structural       Ag2CrBr6
_chemical_formula_sum              "Ag2 Cr1 Br6"
_cell_length_a       6.984156935352256
_cell_length_b       6.984156979250194
_cell_length_c       6.984157147525536
_cell_angle_alpha    59.99999993838191
_cell_angle_beta     59.99999994207347
_cell_angle_gamma    60.00000193127026

_space_group_name_H-M_alt    "P 1"
_space_group_IT_number       1

loop_
  _space_group_symop_operation_xyz
  'x, y, z'

loop_
  _atom_site_type_symbol
  _atom_site_label
  _atom_site_symmetry_multiplicity
  _atom_site_fract_x
  _atom_site_fract_y
  _atom_site_fract_z
  _atom_site_occupancy
  Ag  Ag1       1.0  0.2500000285622904  0.2500000210270042  0.24999996209536762  1.0000
  Ag  Ag2       1.0  0.7499999725108091  0.7500000157336908  0.7500000223884619  1.0000
  Cr  Cr1       1.0  0.99999989021365  0.9999999772031405  1.5935938372638772e-07  1.0000
  Br  Br1       1.0  0.24641677679416063  0.24641678694814198  0.7535832330707856  1.0000
  Br  Br2       1.0  0.7535832960046522  0.7535833322319628  0.24641669152222725  1.0000
  Br  Br3       1.0  0.7535832412290229  0.246416726335891  0.2464167716137876  1.0000
  Br  Br4       1.0  0.24641687997162667  0.7535831087602964  0.7535831276390647  1.0000
  Br  Br5       1.0  0.24641681033663615  0.753583194027333  0.2464168053802224  1.0000
  Br  Br6       1.0  0.7535831004890113  0.24641683571894246  0.7535832177118582  1.0000
