data_image0
_chemical_formula_structural       Ag2CuCl6
_chemical_formula_sum              "Ag2 Cu1 Cl6"
_cell_length_a       6.591262469679605
_cell_length_b       6.591262530547729
_cell_length_c       6.591262688188947
_cell_angle_alpha    59.99999977080612
_cell_angle_beta     59.99999905198197
_cell_angle_gamma    60.00000023603958

_space_group_name_H-M_alt    "P 1"
_space_group_IT_number       1

loop_
  _space_group_symop_operation_xyz
  'x, y, z'

loop_
  _atom_site_type_symbol
  _atom_site_label
  _atom_site_symmetry_multiplicity
  _atom_site_fract_x
  _atom_site_fract_y
  _atom_site_fract_z
  _atom_site_occupancy
  Ag  Ag1       1.0  0.24999997548722375  0.2500000036305608  0.2500000035766684  1.0000
  Ag  Ag2       1.0  0.7500000147805939  0.750000003459147  0.7499999960785313  1.0000
  Cu  Cu1       1.0  0.9999999744294311  2.4155740967291378e-08  0.9999999460896546  1.0000
  Cl  Cl1       1.0  0.2476360843800775  0.24763617770105698  0.7523638720812218  1.0000
  Cl  Cl2       1.0  0.7523638506234933  0.7523638795582676  0.2476361604644928  1.0000
  Cl  Cl3       1.0  0.7523638093010504  0.24763615225756208  0.24763613321331093  1.0000
  Cl  Cl4       1.0  0.24763616183897988  0.7523637860811891  0.7523638663836206  1.0000
  Cl  Cl5       1.0  0.24763618621303116  0.7523638946372775  0.24763616769091085  1.0000
  Cl  Cl6       1.0  0.7523639415504447  0.24763606785721626  0.7523638674407056  1.0000
