data_image0
_chemical_formula_structural       Ag2CoF6
_chemical_formula_sum              "Ag2 Co1 F6"
_cell_length_a       5.54808000942716
_cell_length_b       5.548079944832879
_cell_length_c       5.548079817178344
_cell_angle_alpha    59.99999958998613
_cell_angle_beta     60.00000030733668
_cell_angle_gamma    59.999999150787204

_space_group_name_H-M_alt    "P 1"
_space_group_IT_number       1

loop_
  _space_group_symop_operation_xyz
  'x, y, z'

loop_
  _atom_site_type_symbol
  _atom_site_label
  _atom_site_symmetry_multiplicity
  _atom_site_fract_x
  _atom_site_fract_y
  _atom_site_fract_z
  _atom_site_occupancy
  Ag  Ag1       1.0  0.2500000056797931  0.25000003614546473  0.2499999845560316  1.0000
  Ag  Ag2       1.0  0.7499999737549599  0.7500000135134111  0.7500000498081784  1.0000
  Co  Co1       1.0  2.4953476437419482e-08  3.752769054258852e-08  1.2030732724862495e-09  1.0000
  F   F1        1.0  0.23655890929511536  0.23655877119161273  0.7634411494619447  1.0000
  F   F2        1.0  0.7634410677662734  0.7634411482241016  0.2365588016092207  1.0000
  F   F3        1.0  0.7634410307247923  0.23655894965889962  0.2365588348770107  1.0000
  F   F4        1.0  0.23655881300589068  0.7634411949229608  0.7634411513855763  1.0000
  F   F5        1.0  0.23655896412911995  0.7634410920797047  0.23655880104886964  1.0000
  F   F6        1.0  0.7634412471698049  0.23655876773320333  0.7634412159110889  1.0000
