data_image0
_chemical_formula_structural       Ag2CCl6
_chemical_formula_sum              "Ag2 C1 Cl6"
_cell_length_a       6.534820595076883
_cell_length_b       6.534820603444285
_cell_length_c       6.534819350173447
_cell_angle_alpha    60.00000305956201
_cell_angle_beta     60.000004624535194
_cell_angle_gamma    60.000004124075474

_space_group_name_H-M_alt    "P 1"
_space_group_IT_number       1

loop_
  _space_group_symop_operation_xyz
  'x, y, z'

loop_
  _atom_site_type_symbol
  _atom_site_label
  _atom_site_symmetry_multiplicity
  _atom_site_fract_x
  _atom_site_fract_y
  _atom_site_fract_z
  _atom_site_occupancy
  Ag  Ag1       1.0  0.2499999869503976  0.24999999945854673  0.25000002418710204  1.0000
  Ag  Ag2       1.0  0.7500000538956667  0.749999968388718  0.7500000303206805  1.0000
  C   C1        1.0  0.9999999566368651  0.9999994939706396  5.256595869652479e-07  1.0000
  Cl  Cl1       1.0  0.23624310354583472  0.2362430566509181  0.7637568620477225  1.0000
  Cl  Cl2       1.0  0.7637570980018064  0.7637572560459892  0.2362427101448124  1.0000
  Cl  Cl3       1.0  0.7637571362531974  0.23624293501466617  0.236242763225478  1.0000
  Cl  Cl4       1.0  0.23624272269626687  0.7637572127541429  0.763757264725075  1.0000
  Cl  Cl5       1.0  0.2362428348752905  0.7637572740331149  0.23624256813795985  1.0000
  Cl  Cl6       1.0  0.7637570697496934  0.23624279502002452  0.7637572712772687  1.0000
