data_image0
_chemical_formula_structural       Ag2CaI6
_chemical_formula_sum              "Ag2 Ca1 I6"
_cell_length_a       8.074710630002787
_cell_length_b       8.074710794284293
_cell_length_c       8.074710460611573
_cell_angle_alpha    60.00000027700869
_cell_angle_beta     59.99999996369819
_cell_angle_gamma    60.00000026002142

_space_group_name_H-M_alt    "P 1"
_space_group_IT_number       1

loop_
  _space_group_symop_operation_xyz
  'x, y, z'

loop_
  _atom_site_type_symbol
  _atom_site_label
  _atom_site_symmetry_multiplicity
  _atom_site_fract_x
  _atom_site_fract_y
  _atom_site_fract_z
  _atom_site_occupancy
  Ag  Ag1       1.0  0.2500000116530907  0.249999996578356  0.2500000246066649  1.0000
  Ag  Ag2       1.0  0.7500000148373509  0.7500000200703932  0.7499999981225258  1.0000
  Ca  Ca1       1.0  0.9999999528811708  2.123472738544038e-08  7.988312971363737e-09  1.0000
  I   I1        1.0  0.2692950981870292  0.26929516172733015  0.7307048130099315  1.0000
  I   I2        1.0  0.7307049367100479  0.7307048640220174  0.2692951080830549  1.0000
  I   I3        1.0  0.7307048121265248  0.2692951370633815  0.2692951313815361  1.0000
  I   I4        1.0  0.2692950725167238  0.7307049190212906  0.7307048843468686  1.0000
  I   I5        1.0  0.26929515122596914  0.7307047960408596  0.26929514718840397  1.0000
  I   I6        1.0  0.730704950884645  0.2692950795486302  0.7307048946375515  1.0000
