data_image0
_chemical_formula_structural       Ag2CrCl6
_chemical_formula_sum              "Ag2 Cr1 Cl6"
_cell_length_a       6.627683917460871
_cell_length_b       6.627683615778243
_cell_length_c       6.627683967879986
_cell_angle_alpha    60.000002780696896
_cell_angle_beta     60.00000230162529
_cell_angle_gamma    60.00000206329262

_space_group_name_H-M_alt    "P 1"
_space_group_IT_number       1

loop_
  _space_group_symop_operation_xyz
  'x, y, z'

loop_
  _atom_site_type_symbol
  _atom_site_label
  _atom_site_symmetry_multiplicity
  _atom_site_fract_x
  _atom_site_fract_y
  _atom_site_fract_z
  _atom_site_occupancy
  Ag  Ag1       1.0  0.24999996957417034  0.2499999907201221  0.2500000130419213  1.0000
  Ag  Ag2       1.0  0.749999970193011  0.7500000072709044  0.7500000436440418  1.0000
  Cr  Cr1       1.0  4.52800632650697e-08  3.1414686261057096e-08  0.999999872632088  1.0000
  Cl  Cl1       1.0  0.2452963223583521  0.2452963437017898  0.7547037136300567  1.0000
  Cl  Cl2       1.0  0.75470362939313  0.7547036653767786  0.24529643411992916  1.0000
  Cl  Cl3       1.0  0.7547036053704665  0.24529639636015163  0.24529632983116267  1.0000
  Cl  Cl4       1.0  0.24529637047342917  0.7547035979350254  0.7547036156085386  1.0000
  Cl  Cl5       1.0  0.2452964086362674  0.7547035747955624  0.24529639943057024  1.0000
  Cl  Cl6       1.0  0.7547037100017542  0.24529636221400783  0.7547035439930853  1.0000
