data_image0
_chemical_formula_structural       Ag2CI6
_chemical_formula_sum              "Ag2 C1 I6"
_cell_length_a       7.3850725996159765
_cell_length_b       7.385072508745575
_cell_length_c       7.38507241037396
_cell_angle_alpha    59.99999919220274
_cell_angle_beta     60.00000130702266
_cell_angle_gamma    60.00000146108126

_space_group_name_H-M_alt    "P 1"
_space_group_IT_number       1

loop_
  _space_group_symop_operation_xyz
  'x, y, z'

loop_
  _atom_site_type_symbol
  _atom_site_label
  _atom_site_symmetry_multiplicity
  _atom_site_fract_x
  _atom_site_fract_y
  _atom_site_fract_z
  _atom_site_occupancy
  Ag  Ag1       1.0  0.2499999734980305  0.24999997155220602  0.25000004017657623  1.0000
  Ag  Ag2       1.0  0.7500000160907059  0.7500000125025766  0.7499999764155414  1.0000
  C   C1        1.0  4.077995478556703e-08  0.999999938638978  0.9999999981037886  1.0000
  I   I1        1.0  0.25395887654347815  0.25395887076383666  0.7460411545710628  1.0000
  I   I2        1.0  0.7460412233615629  0.7460412045032792  0.2539588086496358  1.0000
  I   I3        1.0  0.7460411106308384  0.25395885846217003  0.25395886406410356  1.0000
  I   I4        1.0  0.2539588227483058  0.7460411488102962  0.7460411622535539  1.0000
  I   I5        1.0  0.2539587984540758  0.7460411632622724  0.25395883296558625  1.0000
  I   I6        1.0  0.7460411343722663  0.25395884566860016  0.7460411657176117  1.0000
