data_image0
_chemical_formula_structural       Ag2CdF6
_chemical_formula_sum              "Ag2 Cd1 F6"
_cell_length_a       5.781652840183293
_cell_length_b       5.781652908218365
_cell_length_c       5.7816529086492165
_cell_angle_alpha    59.999999645805666
_cell_angle_beta     59.99999961961085
_cell_angle_gamma    60.00000099720545

_space_group_name_H-M_alt    "P 1"
_space_group_IT_number       1

loop_
  _space_group_symop_operation_xyz
  'x, y, z'

loop_
  _atom_site_type_symbol
  _atom_site_label
  _atom_site_symmetry_multiplicity
  _atom_site_fract_x
  _atom_site_fract_y
  _atom_site_fract_z
  _atom_site_occupancy
  Ag  Ag1       1.0  0.2500000036164354  0.25000005387130697  0.2499999473800964  1.0000
  Ag  Ag2       1.0  0.750000011880856  0.7500000027391719  0.750000019649613  1.0000
  Cd  Cd1       1.0  3.8995205342203e-08  1.4828310211388836e-08  7.619892155341536e-10  1.0000
  F   F1        1.0  0.2654824792491191  0.265482476779075  0.7345175422918928  1.0000
  F   F2        1.0  0.7345174993920822  0.7345175226364941  0.265482475222535  1.0000
  F   F3        1.0  0.7345175109172487  0.2654824832703145  0.2654824257031596  1.0000
  F   F4        1.0  0.2654824605624892  0.7345175076719346  0.7345175702253037  1.0000
  F   F5        1.0  0.2654824571755173  0.7345175116805396  0.2654824889702101  1.0000
  F   F6        1.0  0.7345175201953986  0.2654824496050899  0.7345175015448822  1.0000
