data_image0
_chemical_formula_structural       Ag2CuBr6
_chemical_formula_sum              "Ag2 Cu1 Br6"
_cell_length_a       6.949592418173773
_cell_length_b       6.949592476026525
_cell_length_c       6.949592481745212
_cell_angle_alpha    60.00000015915424
_cell_angle_beta     59.99999996091181
_cell_angle_gamma    60.00000043583821

_space_group_name_H-M_alt    "P 1"
_space_group_IT_number       1

loop_
  _space_group_symop_operation_xyz
  'x, y, z'

loop_
  _atom_site_type_symbol
  _atom_site_label
  _atom_site_symmetry_multiplicity
  _atom_site_fract_x
  _atom_site_fract_y
  _atom_site_fract_z
  _atom_site_occupancy
  Ag  Ag1       1.0  0.24999996782387757  0.2499999995766594  0.25000000695163493  1.0000
  Ag  Ag2       1.0  0.749999981765453  0.7499999881560212  0.7499999639720404  1.0000
  Cu  Cu1       1.0  0.9999999976502318  7.049304663818325e-09  5.280983596680979e-10  1.0000
  Br  Br1       1.0  0.2503751672630262  0.25037512712165166  0.749624849091011  1.0000
  Br  Br2       1.0  0.74962484712625  0.7496248606110292  0.2503751671350894  1.0000
  Br  Br3       1.0  0.7496248542327902  0.2503751439776525  0.25037515980136227  1.0000
  Br  Br4       1.0  0.2503751580917925  0.7496248649029426  0.7496248655892607  1.0000
  Br  Br5       1.0  0.2503751597884564  0.7496248608206001  0.2503751382384914  1.0000
  Br  Br6       1.0  0.7496248585948326  0.2503751498223209  0.7496248515850832  1.0000
