data_image0
_chemical_formula_structural       Ag2CrCl6
_chemical_formula_sum              "Ag2 Cr1 Cl6"
_cell_length_a       6.629724008391954
_cell_length_b       6.629723868744589
_cell_length_c       6.629723853825294
_cell_angle_alpha    59.99999988629177
_cell_angle_beta     59.99999909375842
_cell_angle_gamma    59.999998371292

_space_group_name_H-M_alt    "P 1"
_space_group_IT_number       1

loop_
  _space_group_symop_operation_xyz
  'x, y, z'

loop_
  _atom_site_type_symbol
  _atom_site_label
  _atom_site_symmetry_multiplicity
  _atom_site_fract_x
  _atom_site_fract_y
  _atom_site_fract_z
  _atom_site_occupancy
  Ag  Ag1       1.0  0.25000001364120333  0.25000002334073756  0.24999997090806847  1.0000
  Ag  Ag2       1.0  0.7499999870727455  0.7500000016701048  0.749999996451069  1.0000
  Cr  Cr1       1.0  2.0266513911950977e-08  3.325237718896294e-08  4.5641759773684737e-08  1.0000
  Cl  Cl1       1.0  0.24525283752971644  0.2452528976686205  0.7547471766333906  1.0000
  Cl  Cl2       1.0  0.75474705354451  0.7547471532051837  0.24525294423265392  1.0000
  Cl  Cl3       1.0  0.7547471222952806  0.2452527777145497  0.24525287246401856  1.0000
  Cl  Cl4       1.0  0.24525294418386184  0.7547470865764687  0.7547470714795862  1.0000
  Cl  Cl5       1.0  0.24525290940319738  0.7547471749539862  0.2452528388175124  1.0000
  Cl  Cl6       1.0  0.7547471188791601  0.24525283527802133  0.7547470934880275  1.0000
