data_image0
_chemical_formula_structural       Ag2CoCl6
_chemical_formula_sum              "Ag2 Co1 Cl6"
_cell_length_a       6.603070503083145
_cell_length_b       6.603070516304677
_cell_length_c       6.603070300524791
_cell_angle_alpha    60.00000114938186
_cell_angle_beta     60.000002520811606
_cell_angle_gamma    60.00000626771698

_space_group_name_H-M_alt    "P 1"
_space_group_IT_number       1

loop_
  _space_group_symop_operation_xyz
  'x, y, z'

loop_
  _atom_site_type_symbol
  _atom_site_label
  _atom_site_symmetry_multiplicity
  _atom_site_fract_x
  _atom_site_fract_y
  _atom_site_fract_z
  _atom_site_occupancy
  Ag  Ag1       1.0  0.2500000552164989  0.24999992051319425  0.24999997720891667  1.0000
  Ag  Ag2       1.0  0.7500000140006411  0.7499999804072801  0.7500000388608984  1.0000
  Co  Co1       1.0  0.9999999574636284  9.088574062432994e-08  0.9999999167618822  1.0000
  Cl  Cl1       1.0  0.240296090713589  0.2402963861440783  0.7597037037730219  1.0000
  Cl  Cl2       1.0  0.7597038216630904  0.7597036390487292  0.2402963240375141  1.0000
  Cl  Cl3       1.0  0.7597037426305643  0.24029621609880172  0.24029614735193192  1.0000
  Cl  Cl4       1.0  0.24029622849687446  0.7597037849814653  0.7597038373938965  1.0000
  Cl  Cl5       1.0  0.24029631972288806  0.7597038339050578  0.24029617753053506  1.0000
  Cl  Cl6       1.0  0.7597037858630077  0.24029614677229463  0.7597038880022005  1.0000
