data_image0
_chemical_formula_structural       Ag2CoCl6
_chemical_formula_sum              "Ag2 Co1 Cl6"
_cell_length_a       6.606713607396673
_cell_length_b       6.606713740262692
_cell_length_c       6.606713641129374
_cell_angle_alpha    60.00000047261443
_cell_angle_beta     59.99999913203977
_cell_angle_gamma    59.99999957379941

_space_group_name_H-M_alt    "P 1"
_space_group_IT_number       1

loop_
  _space_group_symop_operation_xyz
  'x, y, z'

loop_
  _atom_site_type_symbol
  _atom_site_label
  _atom_site_symmetry_multiplicity
  _atom_site_fract_x
  _atom_site_fract_y
  _atom_site_fract_z
  _atom_site_occupancy
  Ag  Ag1       1.0  0.25000001996076193  0.2500000001145222  0.24999999910651605  1.0000
  Ag  Ag2       1.0  0.7500000126047083  0.7499999743905309  0.7500000218259604  1.0000
  Co  Co1       1.0  1.62236354014134e-08  3.5221977580479724e-08  0.9999999773044171  1.0000
  Cl  Cl1       1.0  0.24022786419025344  0.24022781012310673  0.7597721674145524  1.0000
  Cl  Cl2       1.0  0.7597721249990653  0.7597721476978518  0.2402278880888827  1.0000
  Cl  Cl3       1.0  0.7597720972479318  0.2402278248894556  0.24022783883938287  1.0000
  Cl  Cl4       1.0  0.24022784264943137  0.7597722126444005  0.7597721257729895  1.0000
  Cl  Cl5       1.0  0.24022786658163325  0.7597721780436414  0.24022780295121357  1.0000
  Cl  Cl6       1.0  0.7597721643238984  0.2402278224144478  0.759772157399135  1.0000
