data_image0
_chemical_formula_structural       Ag2CCl6
_chemical_formula_sum              "Ag2 C1 Cl6"
_cell_length_a       6.537744782088338
_cell_length_b       6.537745072257567
_cell_length_c       6.537744675901865
_cell_angle_alpha    60.000001903027574
_cell_angle_beta     60.00000000979651
_cell_angle_gamma    59.99999990016335

_space_group_name_H-M_alt    "P 1"
_space_group_IT_number       1

loop_
  _space_group_symop_operation_xyz
  'x, y, z'

loop_
  _atom_site_type_symbol
  _atom_site_label
  _atom_site_symmetry_multiplicity
  _atom_site_fract_x
  _atom_site_fract_y
  _atom_site_fract_z
  _atom_site_occupancy
  Ag  Ag1       1.0  0.24999995026542896  0.25000001375042236  0.2500000079378227  1.0000
  Ag  Ag2       1.0  0.7500000635277645  0.7499999382173179  0.7500000255591434  1.0000
  C   C1        1.0  0.9999991531054278  4.4772934143943253e-07  2.8982780682767e-07  1.0000
  Cl  Cl1       1.0  0.23612608712289165  0.23612610598411818  0.7638738723576027  1.0000
  Cl  Cl2       1.0  0.7638741311185164  0.7638740539248522  0.23612589529104094  1.0000
  Cl  Cl3       1.0  0.7638741893097986  0.23612580283135015  0.23612584203922735  1.0000
  Cl  Cl4       1.0  0.236126151182707  0.7638738737547487  0.7638738308209994  1.0000
  Cl  Cl5       1.0  0.23612613946882874  0.7638739014159521  0.23612610845314577  1.0000
  Cl  Cl6       1.0  0.7638741133898037  0.23612586321733833  0.763874133203983  1.0000
