data_image0
_chemical_formula_structural       Ag2CBr6
_chemical_formula_sum              "Ag2 C1 Br6"
_cell_length_a       6.9046417250258045
_cell_length_b       6.904641991192867
_cell_length_c       6.904641889436466
_cell_angle_alpha    59.99999869939609
_cell_angle_beta     59.99999911812294
_cell_angle_gamma    60.00000020310434

_space_group_name_H-M_alt    "P 1"
_space_group_IT_number       1

loop_
  _space_group_symop_operation_xyz
  'x, y, z'

loop_
  _atom_site_type_symbol
  _atom_site_label
  _atom_site_symmetry_multiplicity
  _atom_site_fract_x
  _atom_site_fract_y
  _atom_site_fract_z
  _atom_site_occupancy
  Ag  Ag1       1.0  0.24999999602738304  0.2499999672853774  0.25000000396578587  1.0000
  Ag  Ag2       1.0  0.7499999903775968  0.7500000153792813  0.7500001002664625  1.0000
  C   C1        1.0  0.9999998591338845  0.9999999911310044  1.4038912320538138e-08  1.0000
  Br  Br1       1.0  0.24303195065869485  0.24303191863513926  0.756968037356322  1.0000
  Br  Br2       1.0  0.7569681162539946  0.7569681686836779  0.2430318743622195  1.0000
  Br  Br3       1.0  0.7569680405406117  0.24303195602078131  0.24303197148036473  1.0000
  Br  Br4       1.0  0.2430319734161887  0.756968014227285  0.7569680136650899  1.0000
  Br  Br5       1.0  0.2430319687186026  0.7569680297834855  0.2430319827586349  1.0000
  Br  Br6       1.0  0.7569681071152975  0.2430319404645805  0.756968006207495  1.0000
