data_image0
_chemical_formula_structural       Ag2CF6
_chemical_formula_sum              "Ag2 C1 F6"
_cell_length_a       5.276434922288627
_cell_length_b       5.276435028113549
_cell_length_c       5.2764349636473185
_cell_angle_alpha    59.99999886023852
_cell_angle_beta     59.9999988149033
_cell_angle_gamma    59.999998164459335

_space_group_name_H-M_alt    "P 1"
_space_group_IT_number       1

loop_
  _space_group_symop_operation_xyz
  'x, y, z'

loop_
  _atom_site_type_symbol
  _atom_site_label
  _atom_site_symmetry_multiplicity
  _atom_site_fract_x
  _atom_site_fract_y
  _atom_site_fract_z
  _atom_site_occupancy
  Ag  Ag1       1.0  0.24999996661327634  0.25000010632359  0.24999994714838955  1.0000
  Ag  Ag2       1.0  0.7499999327382252  0.7499999707967974  0.7500001127961029  1.0000
  C   C1        1.0  4.761403338241289e-08  2.785391703409717e-08  0.9999999508947099  1.0000
  F   F1        1.0  0.21091888460186306  0.21091887625840833  0.7890811130466072  1.0000
  F   F2        1.0  0.7890811434259668  0.7890810708770292  0.210918866057778  1.0000
  F   F3        1.0  0.7890811476282349  0.21091890594905677  0.21091885570056937  1.0000
  F   F4        1.0  0.21091890778693573  0.7890810968942142  0.7890811671410844  1.0000
  F   F5        1.0  0.21091885216842202  0.7890811026695796  0.21091889099806688  1.0000
  F   F6        1.0  0.7890811396728714  0.21091886767745602  0.789081126812511  1.0000
