data_image0
_chemical_formula_structural       Ag2CoF6
_chemical_formula_sum              "Ag2 Co1 F6"
_cell_length_a       5.55126148867522
_cell_length_b       5.551261368091816
_cell_length_c       5.551261338558964
_cell_angle_alpha    60.0000011308167
_cell_angle_beta     60.00000075895963
_cell_angle_gamma    60.00000070560534

_space_group_name_H-M_alt    "P 1"
_space_group_IT_number       1

loop_
  _space_group_symop_operation_xyz
  'x, y, z'

loop_
  _atom_site_type_symbol
  _atom_site_label
  _atom_site_symmetry_multiplicity
  _atom_site_fract_x
  _atom_site_fract_y
  _atom_site_fract_z
  _atom_site_occupancy
  Ag  Ag1       1.0  0.24999995549116782  0.25000007209993064  0.24999998427933934  1.0000
  Ag  Ag2       1.0  0.7499999415903975  0.7500000221501376  0.7499999889362954  1.0000
  Co  Co1       1.0  0.9999999531245412  2.2062460515706987e-08  1.2406499357387297e-08  1.0000
  F   F1        1.0  0.23643956530024468  0.23643946565790847  0.763560466429113  1.0000
  F   F2        1.0  0.7635605357146482  0.7635604785674283  0.23643951225728577  1.0000
  F   F3        1.0  0.7635605259726892  0.23643947813629318  0.23643949084634125  1.0000
  F   F4        1.0  0.23643951127384036  0.7635605013889808  0.7635605344993339  1.0000
  F   F5        1.0  0.2364394902435288  0.7635605042382498  0.23643950180521464  1.0000
  F   F6        1.0  0.7635605198359304  0.23643948190576172  0.7635604923826019  1.0000
