data_image0
_chemical_formula_structural       Ag2CoBr6
_chemical_formula_sum              "Ag2 Co1 Br6"
_cell_length_a       6.950695926006136
_cell_length_b       6.950695900354085
_cell_length_c       6.950695872136833
_cell_angle_alpha    60.00000035303524
_cell_angle_beta     60.00000044508057
_cell_angle_gamma    60.000000156926696

_space_group_name_H-M_alt    "P 1"
_space_group_IT_number       1

loop_
  _space_group_symop_operation_xyz
  'x, y, z'

loop_
  _atom_site_type_symbol
  _atom_site_label
  _atom_site_symmetry_multiplicity
  _atom_site_fract_x
  _atom_site_fract_y
  _atom_site_fract_z
  _atom_site_occupancy
  Ag  Ag1       1.0  0.24999999781264537  0.2500000037015344  0.250000004894489  1.0000
  Ag  Ag2       1.0  0.7499999937402558  0.7499999952461855  0.7500000339711549  1.0000
  Co  Co1       1.0  0.9999999785042207  0.9999999947138608  3.2094122506860785e-08  1.0000
  Br  Br1       1.0  0.2473392202537975  0.24733921761142524  0.7526607671345449  1.0000
  Br  Br2       1.0  0.7526607640666616  0.7526607830983413  0.24733923130515068  1.0000
  Br  Br3       1.0  0.7526608118337689  0.24733920288119948  0.24733918656786272  1.0000
  Br  Br4       1.0  0.24733921069597548  0.752660797828567  0.7526607683092075  1.0000
  Br  Br5       1.0  0.2473392287932531  0.7526608004599279  0.24733918804569885  1.0000
  Br  Br6       1.0  0.752660795783567  0.24733920906007048  0.7526607815445857  1.0000
