data_image0
_chemical_formula_structural       Ag2CoI6
_chemical_formula_sum              "Ag2 Co1 I6"
_cell_length_a       7.40572761779512
_cell_length_b       7.405727678971676
_cell_length_c       7.405727700569709
_cell_angle_alpha    60.0000002190337
_cell_angle_beta     59.999999352483805
_cell_angle_gamma    60.0000009376924

_space_group_name_H-M_alt    "P 1"
_space_group_IT_number       1

loop_
  _space_group_symop_operation_xyz
  'x, y, z'

loop_
  _atom_site_type_symbol
  _atom_site_label
  _atom_site_symmetry_multiplicity
  _atom_site_fract_x
  _atom_site_fract_y
  _atom_site_fract_z
  _atom_site_occupancy
  Ag  Ag1       1.0  0.2500000410018758  0.25000002716875225  0.24999993083954056  1.0000
  Ag  Ag2       1.0  0.750000036952475  0.7499999607802744  0.7500000687473819  1.0000
  Co  Co1       1.0  2.523093270703309e-08  0.999999985115975  0.9999999921259337  1.0000
  I   I1        1.0  0.25026549231814943  0.2502655819935626  0.7497344722907149  1.0000
  I   I2        1.0  0.7497344914708556  0.7497343563420457  0.2502655424727295  1.0000
  I   I3        1.0  0.7497344562002827  0.2502655473278997  0.2502655963533966  1.0000
  I   I4        1.0  0.2502655056166689  0.7497344803118601  0.7497344806157389  1.0000
  I   I5        1.0  0.25026556207320233  0.7497344928851758  0.2502654716048376  1.0000
  I   I6        1.0  0.7497343835842691  0.2502655645226337  0.7497344500263317  1.0000
