data_image0
_chemical_formula_structural       Ag2CBr6
_chemical_formula_sum              "Ag2 C1 Br6"
_cell_length_a       6.905424508983221
_cell_length_b       6.905424331007557
_cell_length_c       6.905424367508765
_cell_angle_alpha    59.999998649705
_cell_angle_beta     59.99999984708668
_cell_angle_gamma    59.999998485914816

_space_group_name_H-M_alt    "P 1"
_space_group_IT_number       1

loop_
  _space_group_symop_operation_xyz
  'x, y, z'

loop_
  _atom_site_type_symbol
  _atom_site_label
  _atom_site_symmetry_multiplicity
  _atom_site_fract_x
  _atom_site_fract_y
  _atom_site_fract_z
  _atom_site_occupancy
  Ag  Ag1       1.0  0.2500000013233037  0.24999994217619212  0.2500000268126189  1.0000
  Ag  Ag2       1.0  0.7499999741548593  0.7500000163035959  0.7500000395575682  1.0000
  C   C1        1.0  4.4658675717046446e-08  0.9999999964528051  0.9999997853939115  1.0000
  Br  Br1       1.0  0.24303359938438523  0.24303355331280477  0.7569664579791257  1.0000
  Br  Br2       1.0  0.7569664742443113  0.7569664317709573  0.24303355325449139  1.0000
  Br  Br3       1.0  0.7569663789043369  0.2430336122034402  0.2430336254383191  1.0000
  Br  Br4       1.0  0.24303349684957248  0.7569664899378109  0.756966489921972  1.0000
  Br  Br5       1.0  0.24303356269632245  0.7569664206817666  0.24303358017539622  1.0000
  Br  Br6       1.0  0.7569664622541407  0.24303354489241444  0.7569664738409504  1.0000
