data_image0
_chemical_formula_structural       Ag2CaCl6
_chemical_formula_sum              "Ag2 Ca1 Cl6"
_cell_length_a       6.895811138441922
_cell_length_b       6.8958110823321155
_cell_length_c       6.895811388926509
_cell_angle_alpha    59.999997953317866
_cell_angle_beta     59.99999934507519
_cell_angle_gamma    59.99999662738156

_space_group_name_H-M_alt    "P 1"
_space_group_IT_number       1

loop_
  _space_group_symop_operation_xyz
  'x, y, z'

loop_
  _atom_site_type_symbol
  _atom_site_label
  _atom_site_symmetry_multiplicity
  _atom_site_fract_x
  _atom_site_fract_y
  _atom_site_fract_z
  _atom_site_occupancy
  Ag  Ag1       1.0  0.24999995676297906  0.24999996864760107  0.250000036592192  1.0000
  Ag  Ag2       1.0  0.75000000673269  0.7500000391481139  0.7500000155564033  1.0000
  Ca  Ca1       1.0  0.999999976084042  0.9999999662546538  7.958610066878445e-08  1.0000
  Cl  Cl1       1.0  0.26412308598417933  0.26412307344290326  0.7358769899912049  1.0000
  Cl  Cl2       1.0  0.735876950919429  0.7358768899510375  0.2641231593162951  1.0000
  Cl  Cl3       1.0  0.735877045077017  0.26412318143057273  0.2641229443314113  1.0000
  Cl  Cl4       1.0  0.26412309472814327  0.735877005748296  0.7358767458010911  1.0000
  Cl  Cl5       1.0  0.264123029010316  0.7358768535085763  0.2641231021723094  1.0000
  Cl  Cl6       1.0  0.7358768500525391  0.2641230157536149  0.7358769193441991  1.0000
