data_image0
_chemical_formula_structural       Ag2FeCl6
_chemical_formula_sum              "Ag2 Fe1 Cl6"
_cell_length_a       6.57377084146614
_cell_length_b       6.573770415514946
_cell_length_c       6.573770549356981
_cell_angle_alpha    59.99999973530976
_cell_angle_beta     60.00000092684538
_cell_angle_gamma    60.00000180744734

_space_group_name_H-M_alt    "P 1"
_space_group_IT_number       1

loop_
  _space_group_symop_operation_xyz
  'x, y, z'

loop_
  _atom_site_type_symbol
  _atom_site_label
  _atom_site_symmetry_multiplicity
  _atom_site_fract_x
  _atom_site_fract_y
  _atom_site_fract_z
  _atom_site_occupancy
  Ag  Ag1       1.0  0.24999999464922773  0.24999997137599678  0.250000016022034  1.0000
  Ag  Ag2       1.0  0.7500000311059627  0.7500000203234527  0.7499999744316251  1.0000
  Fe  Fe1       1.0  1.3392224748552473e-07  0.999999977643065  0.9999999183569942  1.0000
  Cl  Cl1       1.0  0.2410647221388894  0.2410647014092888  0.7589352713459627  1.0000
  Cl  Cl2       1.0  0.7589352572707331  0.7589353871702285  0.241064680149674  1.0000
  Cl  Cl3       1.0  0.7589353324501467  0.24106472949223975  0.24106460124299536  1.0000
  Cl  Cl4       1.0  0.24106467063158904  0.7589351616009831  0.7589354691048682  1.0000
  Cl  Cl5       1.0  0.2410646355468777  0.7589353649399045  0.24106465090825785  1.0000
  Cl  Cl6       1.0  0.7589352089481094  0.24106467519957417  0.7589354515913992  1.0000
