data_image0
_chemical_formula_structural       Ag2FeF6
_chemical_formula_sum              "Ag2 Fe1 F6"
_cell_length_a       5.564814477761122
_cell_length_b       5.5648144092387595
_cell_length_c       5.564814587406302
_cell_angle_alpha    59.99999902223047
_cell_angle_beta     59.999998786492576
_cell_angle_gamma    59.99999947981556

_space_group_name_H-M_alt    "P 1"
_space_group_IT_number       1

loop_
  _space_group_symop_operation_xyz
  'x, y, z'

loop_
  _atom_site_type_symbol
  _atom_site_label
  _atom_site_symmetry_multiplicity
  _atom_site_fract_x
  _atom_site_fract_y
  _atom_site_fract_z
  _atom_site_occupancy
  Ag  Ag1       1.0  0.24999998265406445  0.24999999737559367  0.24999999223903097  1.0000
  Ag  Ag2       1.0  0.7500000509787076  0.7499999943276544  0.7499999995826113  1.0000
  Fe  Fe1       1.0  1.5028499422860626e-08  0.9999999735895262  2.36610377752263e-08  1.0000
  F   F1        1.0  0.24135431849794628  0.24135438935796122  0.7586456510529023  1.0000
  F   F2        1.0  0.7586456479795167  0.7586456419609976  0.24135435813254943  1.0000
  F   F3        1.0  0.7586456451413706  0.24135437756202574  0.24135431197826815  1.0000
  F   F4        1.0  0.24135438214052346  0.7586456207438407  0.7586456473714127  1.0000
  F   F5        1.0  0.24135436056766313  0.7586456257714665  0.24135436502050953  1.0000
  F   F6        1.0  0.7586455861451363  0.24135439014138216  0.7586456545623087  1.0000
