data_image0
_chemical_formula_structural       Ag2FeI6
_chemical_formula_sum              "Ag2 Fe1 I6"
_cell_length_a       7.411352504324458
_cell_length_b       7.411352353959587
_cell_length_c       7.411352231747201
_cell_angle_alpha    59.99999995686184
_cell_angle_beta     60.0000019613851
_cell_angle_gamma    60.00000064686813

_space_group_name_H-M_alt    "P 1"
_space_group_IT_number       1

loop_
  _space_group_symop_operation_xyz
  'x, y, z'

loop_
  _atom_site_type_symbol
  _atom_site_label
  _atom_site_symmetry_multiplicity
  _atom_site_fract_x
  _atom_site_fract_y
  _atom_site_fract_z
  _atom_site_occupancy
  Ag  Ag1       1.0  0.25000002674438765  0.25000001373020797  0.2499999819637731  1.0000
  Ag  Ag2       1.0  0.7500000032612475  0.7500000197077918  0.7500000140086329  1.0000
  Fe  Fe1       1.0  1.1078914337382564e-08  1.817778116716683e-08  0.9999999233047061  1.0000
  I   I1        1.0  0.23224672483174014  0.23224680512358536  0.7677532269649733  1.0000
  I   I2        1.0  0.7677531786127836  0.7677532200517859  0.23224683237145752  1.0000
  I   I3        1.0  0.7677531790988006  0.23224680351160967  0.2322467572872179  1.0000
  I   I4        1.0  0.2322467881298654  0.7677532266213389  0.7677532191042219  1.0000
  I   I5        1.0  0.23224685577124687  0.7677531705582579  0.23224674217487068  1.0000
  I   I6        1.0  0.767753234983577  0.23224672737265112  0.7677533100664274  1.0000
