data_image0
_chemical_formula_structural       Ag2FeI6
_chemical_formula_sum              "Ag2 Fe1 I6"
_cell_length_a       7.41170382923735
_cell_length_b       7.411703903057357
_cell_length_c       7.411704149390058
_cell_angle_alpha    59.999996830606364
_cell_angle_beta     59.999998570275466
_cell_angle_gamma    60.00000223772082

_space_group_name_H-M_alt    "P 1"
_space_group_IT_number       1

loop_
  _space_group_symop_operation_xyz
  'x, y, z'

loop_
  _atom_site_type_symbol
  _atom_site_label
  _atom_site_symmetry_multiplicity
  _atom_site_fract_x
  _atom_site_fract_y
  _atom_site_fract_z
  _atom_site_occupancy
  Ag  Ag1       1.0  0.24999989720507254  0.2500001089587012  0.2500000085627514  1.0000
  Ag  Ag2       1.0  0.7500000876540006  0.7499999286363606  0.7499999957567409  1.0000
  Fe  Fe1       1.0  4.582564136217349e-08  0.999999993390213  3.328768300987039e-09  1.0000
  I   I1        1.0  0.23222950678586915  0.23222935268662198  0.7677706071881742  1.0000
  I   I2        1.0  0.7677704573826347  0.7677704899196758  0.23222951306629205  1.0000
  I   I3        1.0  0.767770353017697  0.2322297841663636  0.23222962428969143  1.0000
  I   I4        1.0  0.23222970067434306  0.7677702385566759  0.7677703908274154  1.0000
  I   I5        1.0  0.23222958507185473  0.7677703750553512  0.23222963698272178  1.0000
  I   I6        1.0  0.7677703702321825  0.23222974185717493  0.7677702183275567  1.0000
