data_image0
_chemical_formula_structural       Ag2GeI6
_chemical_formula_sum              "Ag2 Ge1 I6"
_cell_length_a       7.696958178361052
_cell_length_b       7.696958230074873
_cell_length_c       7.696958311474757
_cell_angle_alpha    59.999999892083316
_cell_angle_beta     59.999999840394416
_cell_angle_gamma    60.00000096108533

_space_group_name_H-M_alt    "P 1"
_space_group_IT_number       1

loop_
  _space_group_symop_operation_xyz
  'x, y, z'

loop_
  _atom_site_type_symbol
  _atom_site_label
  _atom_site_symmetry_multiplicity
  _atom_site_fract_x
  _atom_site_fract_y
  _atom_site_fract_z
  _atom_site_occupancy
  Ag  Ag1       1.0  0.2499999639168924  0.25000000245927945  0.2500000315942847  1.0000
  Ag  Ag2       1.0  0.7500000167069859  0.7500000105602523  0.7499999709496251  1.0000
  Ge  Ge1       1.0  0.9999999930293834  0.9999999984087936  0.9999999860919082  1.0000
  I   I1        1.0  0.260450587689698  0.2604505976300219  0.7395494006413552  1.0000
  I   I2        1.0  0.7395494059056117  0.7395494169807163  0.26045058812516314  1.0000
  I   I3        1.0  0.7395493915704727  0.2604505912618118  0.26045062875729624  1.0000
  I   I4        1.0  0.26045061270826814  0.7395494138016886  0.7395493854254159  1.0000
  I   I5        1.0  0.26045059202470866  0.7395494068697078  0.2604506136125781  1.0000
  I   I6        1.0  0.7395494329241008  0.26045056318725335  0.7395494025415114  1.0000
