data_image0
_chemical_formula_structural       Ag2GeBr6
_chemical_formula_sum              "Ag2 Ge1 Br6"
_cell_length_a       7.044669777267469
_cell_length_b       7.044669615549337
_cell_length_c       7.044669658743567
_cell_angle_alpha    60.00000013707492
_cell_angle_beta     59.999999609491596
_cell_angle_gamma    59.99999932625432

_space_group_name_H-M_alt    "P 1"
_space_group_IT_number       1

loop_
  _space_group_symop_operation_xyz
  'x, y, z'

loop_
  _atom_site_type_symbol
  _atom_site_label
  _atom_site_symmetry_multiplicity
  _atom_site_fract_x
  _atom_site_fract_y
  _atom_site_fract_z
  _atom_site_occupancy
  Ag  Ag1       1.0  0.24999997922882555  0.24999999749823082  0.24999999780288065  1.0000
  Ag  Ag2       1.0  0.7500000427714657  0.7500000116186467  0.7500000604798506  1.0000
  Ge  Ge1       1.0  0.999999994966175  3.477082471086251e-08  0.9999999368680591  1.0000
  Br  Br1       1.0  0.24685534176061483  0.2468553521466201  0.7531446265407802  1.0000
  Br  Br2       1.0  0.7531445620417885  0.7531446378463033  0.24685537548573097  1.0000
  Br  Br3       1.0  0.7531446220707926  0.24685539897544267  0.24685535266090733  1.0000
  Br  Br4       1.0  0.24685535565640584  0.753144639696636  0.7531446377465826  1.0000
  Br  Br5       1.0  0.24685543118156847  0.7531446046401907  0.2468553473584089  1.0000
  Br  Br6       1.0  0.7531446880576174  0.24685531928816512  0.7531446722503367  1.0000
