data_image0
_chemical_formula_structural       Ag2GeBr6
_chemical_formula_sum              "Ag2 Ge1 Br6"
_cell_length_a       7.046444412141787
_cell_length_b       7.04644458893399
_cell_length_c       7.046444696940135
_cell_angle_alpha    60.0000008649958
_cell_angle_beta     59.9999995435575
_cell_angle_gamma    59.99999985923371

_space_group_name_H-M_alt    "P 1"
_space_group_IT_number       1

loop_
  _space_group_symop_operation_xyz
  'x, y, z'

loop_
  _atom_site_type_symbol
  _atom_site_label
  _atom_site_symmetry_multiplicity
  _atom_site_fract_x
  _atom_site_fract_y
  _atom_site_fract_z
  _atom_site_occupancy
  Ag  Ag1       1.0  0.2499999793559098  0.24999991607976893  0.25000015041951423  1.0000
  Ag  Ag2       1.0  0.7500000611178391  0.7499998264539511  0.7500000994356623  1.0000
  Ge  Ge1       1.0  1.587292226889008e-08  5.5619306082897654e-08  1.8181791477462096e-08  1.0000
  Br  Br1       1.0  0.24681724367085625  0.24681724998805563  0.7531827251660069  1.0000
  Br  Br2       1.0  0.7531826888587312  0.7531827967137407  0.2468172264763042  1.0000
  Br  Br3       1.0  0.7531828107226333  0.24681725556128115  0.24681716328585082  1.0000
  Br  Br4       1.0  0.24681727200500211  0.7531827633308604  0.7531826987791566  1.0000
  Br  Br5       1.0  0.24681722114169705  0.753182833616417  0.24681716809127388  1.0000
  Br  Br6       1.0  0.7531826992864611  0.24681730346675085  0.7531827458302227  1.0000
