data_image0
_chemical_formula_structural       Ag2GeI6
_chemical_formula_sum              "Ag2 Ge1 I6"
_cell_length_a       7.693835464971052
_cell_length_b       7.693835393787717
_cell_length_c       7.693835087971961
_cell_angle_alpha    60.00000086117844
_cell_angle_beta     60.00000129930647
_cell_angle_gamma    59.999997869865304

_space_group_name_H-M_alt    "P 1"
_space_group_IT_number       1

loop_
  _space_group_symop_operation_xyz
  'x, y, z'

loop_
  _atom_site_type_symbol
  _atom_site_label
  _atom_site_symmetry_multiplicity
  _atom_site_fract_x
  _atom_site_fract_y
  _atom_site_fract_z
  _atom_site_occupancy
  Ag  Ag1       1.0  0.24999991753005157  0.2500001292994798  0.2499999434085467  1.0000
  Ag  Ag2       1.0  0.7500001342129516  0.7499999724250049  0.7499999797246351  1.0000
  Ge  Ge1       1.0  4.9576364781523845e-09  0.999999976122217  0.9999999912636864  1.0000
  I   I1        1.0  0.2603411569430408  0.26034112998386105  0.7396588799698405  1.0000
  I   I2        1.0  0.7396588613295718  0.7396588380250406  0.26034109686226464  1.0000
  I   I3        1.0  0.7396589490044109  0.2603411166659015  0.2603411185427742  1.0000
  I   I4        1.0  0.26034108667191674  0.7396588306489208  0.7396589119241899  1.0000
  I   I5        1.0  0.2603410415120808  0.7396588357152711  0.2603411758930501  1.0000
  I   I6        1.0  0.7396588514647666  0.2603411704980867  0.7396589003736123  1.0000
