data_image0
_chemical_formula_structural       Ag2GeCl6
_chemical_formula_sum              "Ag2 Ge1 Cl6"
_cell_length_a       6.682859909320338
_cell_length_b       6.682860221589424
_cell_length_c       6.6828603742290795
_cell_angle_alpha    59.99999971467411
_cell_angle_beta     59.999998324753015
_cell_angle_gamma    60.000001205635606

_space_group_name_H-M_alt    "P 1"
_space_group_IT_number       1

loop_
  _space_group_symop_operation_xyz
  'x, y, z'

loop_
  _atom_site_type_symbol
  _atom_site_label
  _atom_site_symmetry_multiplicity
  _atom_site_fract_x
  _atom_site_fract_y
  _atom_site_fract_z
  _atom_site_occupancy
  Ag  Ag1       1.0  0.25000002095697993  0.24999998351154198  0.25000001074329703  1.0000
  Ag  Ag2       1.0  0.7500000008418589  0.7500000018492645  0.7499999926961547  1.0000
  Ge  Ge1       1.0  0.9999999741690214  2.565731937575481e-08  4.5759253027741165e-09  1.0000
  Cl  Cl1       1.0  0.24204506691471508  0.2420450740863447  0.7579550595593815  1.0000
  Cl  Cl2       1.0  0.7579549846768884  0.7579548892824746  0.24204518388721682  1.0000
  Cl  Cl3       1.0  0.7579548343268628  0.2420451754511752  0.24204498214024087  1.0000
  Cl  Cl4       1.0  0.2420450976744387  0.757954897877583  0.7579548695847488  1.0000
  Cl  Cl5       1.0  0.2420451271661905  0.757954867025222  0.24204506863348393  1.0000
  Cl  Cl6       1.0  0.7579549112314501  0.2420450633556137  0.757954835783698  1.0000
