data_image0
_chemical_formula_structural       Ag2GeCl6
_chemical_formula_sum              "Ag2 Ge1 Cl6"
_cell_length_a       6.685246736508867
_cell_length_b       6.685246677267775
_cell_length_c       6.685246658377939
_cell_angle_alpha    60.000000568642335
_cell_angle_beta     60.00000089787495
_cell_angle_gamma    60.00000099797374

_space_group_name_H-M_alt    "P 1"
_space_group_IT_number       1

loop_
  _space_group_symop_operation_xyz
  'x, y, z'

loop_
  _atom_site_type_symbol
  _atom_site_label
  _atom_site_symmetry_multiplicity
  _atom_site_fract_x
  _atom_site_fract_y
  _atom_site_fract_z
  _atom_site_occupancy
  Ag  Ag1       1.0  0.25000000675541606  0.2499999830270065  0.24999999363138353  1.0000
  Ag  Ag2       1.0  0.750000006621949  0.7500000003773408  0.7500000084389045  1.0000
  Ge  Ge1       1.0  2.5001537095897423e-08  0.9999999871759201  5.3744516283979496e-08  1.0000
  Cl  Cl1       1.0  0.24197997009431588  0.24197990561281638  0.7580200656888666  1.0000
  Cl  Cl2       1.0  0.7580200560023548  0.7580200448153244  0.24197997343483202  1.0000
  Cl  Cl3       1.0  0.7580200324487538  0.2419799326944101  0.24197991568298408  1.0000
  Cl  Cl4       1.0  0.24198002035871394  0.7580200360538455  0.7580200036962357  1.0000
  Cl  Cl5       1.0  0.24197984602265624  0.7580201313676848  0.2419799333519143  1.0000
  Cl  Cl6       1.0  0.758020048313002  0.24197996562137292  0.7580200475135738  1.0000
