data_image0
_chemical_formula_structural       Ag2HgI6
_chemical_formula_sum              "Ag2 Hg1 I6"
_cell_length_a       7.79539881449666
_cell_length_b       7.795398836155952
_cell_length_c       7.7953987602377435
_cell_angle_alpha    60.00000028517732
_cell_angle_beta     59.99999981866958
_cell_angle_gamma    60.00000072503712

_space_group_name_H-M_alt    "P 1"
_space_group_IT_number       1

loop_
  _space_group_symop_operation_xyz
  'x, y, z'

loop_
  _atom_site_type_symbol
  _atom_site_label
  _atom_site_symmetry_multiplicity
  _atom_site_fract_x
  _atom_site_fract_y
  _atom_site_fract_z
  _atom_site_occupancy
  Ag  Ag1       1.0  0.25000007196930163  0.2500000141711005  0.249999948370207  1.0000
  Ag  Ag2       1.0  0.7499999735359502  0.7499999875243621  0.7499999681349084  1.0000
  Hg  Hg1       1.0  3.920072974565426e-09  1.5711125727862802e-09  2.932460755741027e-08  1.0000
  I   I1        1.0  0.2677383694961233  0.2677383432957026  0.7322616529284259  1.0000
  I   I2        1.0  0.7322615919521894  0.732261612837497  0.26773839509230757  1.0000
  I   I3        1.0  0.7322616260625175  0.2677383742961661  0.2677383934212698  1.0000
  I   I4        1.0  0.26773841492451955  0.7322616054037214  0.7322616338341499  1.0000
  I   I5        1.0  0.2677383564442059  0.7322616488671653  0.2677383576241823  1.0000
  I   I6        1.0  0.7322615890824432  0.2677384172439097  0.7322616228435173  1.0000
