data_image0
_chemical_formula_structural       Ag2HfF6
_chemical_formula_sum              "Ag2 Hf1 F6"
_cell_length_a       5.807355418046108
_cell_length_b       5.807355310460031
_cell_length_c       5.807355445879292
_cell_angle_alpha    59.99999999684706
_cell_angle_beta     60.00000021982717
_cell_angle_gamma    59.99999851854543

_space_group_name_H-M_alt    "P 1"
_space_group_IT_number       1

loop_
  _space_group_symop_operation_xyz
  'x, y, z'

loop_
  _atom_site_type_symbol
  _atom_site_label
  _atom_site_symmetry_multiplicity
  _atom_site_fract_x
  _atom_site_fract_y
  _atom_site_fract_z
  _atom_site_occupancy
  Ag  Ag1       1.0  0.250000042078417  0.24999998328149767  0.24999995970696526  1.0000
  Ag  Ag2       1.0  0.7500000208117656  0.7500000215489522  0.7500000079074308  1.0000
  Hf  Hf1       1.0  0.9999999883111779  0.9999999873462723  0.9999999828980537  1.0000
  F   F1        1.0  0.24394628899329085  0.24394622644532343  0.7560537726554062  1.0000
  F   F2        1.0  0.7560536905071646  0.7560537720582639  0.2439462449831471  1.0000
  F   F3        1.0  0.7560537579356892  0.2439462238832896  0.2439462512386211  1.0000
  F   F4        1.0  0.24394625689315358  0.7560537640755242  0.7560537488422628  1.0000
  F   F5        1.0  0.2439462726722772  0.7560537645658264  0.24394628530627177  1.0000
  F   F6        1.0  0.7560536644699416  0.24394626557208088  0.7560537531918275  1.0000
