data_image0
_chemical_formula_structural       Ag2HgCl6
_chemical_formula_sum              "Ag2 Hg1 Cl6"
_cell_length_a       6.809315808377676
_cell_length_b       6.809315949076814
_cell_length_c       6.809315635505553
_cell_angle_alpha    60.000001600643046
_cell_angle_beta     60.000000324733776
_cell_angle_gamma    60.00000151157845

_space_group_name_H-M_alt    "P 1"
_space_group_IT_number       1

loop_
  _space_group_symop_operation_xyz
  'x, y, z'

loop_
  _atom_site_type_symbol
  _atom_site_label
  _atom_site_symmetry_multiplicity
  _atom_site_fract_x
  _atom_site_fract_y
  _atom_site_fract_z
  _atom_site_occupancy
  Ag  Ag1       1.0  0.24999999772062023  0.2500000045321829  0.2500000086565426  1.0000
  Ag  Ag2       1.0  0.7499999951662228  0.7499999974088674  0.7500000022211837  1.0000
  Hg  Hg1       1.0  1.7968663473948007e-08  0.999999976617794  6.732413120805338e-08  1.0000
  Cl  Cl1       1.0  0.2646263279503994  0.2646262666716693  0.7353737391879157  1.0000
  Cl  Cl2       1.0  0.735373710345957  0.7353736956994938  0.2646263187015936  1.0000
  Cl  Cl3       1.0  0.7353737081076357  0.2646262946697366  0.2646262386422432  1.0000
  Cl  Cl4       1.0  0.2646262792980973  0.7353736982781572  0.7353737148552564  1.0000
  Cl  Cl5       1.0  0.26462627637699904  0.7353737347206016  0.2646262263096288  1.0000
  Cl  Cl6       1.0  0.7353737080985837  0.26462632297801697  0.7353736874661253  1.0000
