data_image0
_chemical_formula_structural       Ag2HfI6
_chemical_formula_sum              "Ag2 Hf1 I6"
_cell_length_a       7.959583946999262
_cell_length_b       7.959583764438707
_cell_length_c       7.959584179947995
_cell_angle_alpha    60.00000092623887
_cell_angle_beta     59.99999914001316
_cell_angle_gamma    60.000001351780455

_space_group_name_H-M_alt    "P 1"
_space_group_IT_number       1

loop_
  _space_group_symop_operation_xyz
  'x, y, z'

loop_
  _atom_site_type_symbol
  _atom_site_label
  _atom_site_symmetry_multiplicity
  _atom_site_fract_x
  _atom_site_fract_y
  _atom_site_fract_z
  _atom_site_occupancy
  Ag  Ag1       1.0  0.2500000067864933  0.2499999626485268  0.24999998281232294  1.0000
  Ag  Ag2       1.0  0.7499999544164759  0.7499999987323179  0.7500000566751958  1.0000
  Hf  Hf1       1.0  0.9999999410189127  2.46192743709418e-08  4.8589582849896117e-08  1.0000
  I   I1        1.0  0.2509907965290608  0.2509908694404502  0.7490091144674699  1.0000
  I   I2        1.0  0.7490091517180768  0.7490092134980589  0.2509907764931072  1.0000
  I   I3        1.0  0.749009106081819  0.25099083001469114  0.25099086762731665  1.0000
  I   I4        1.0  0.2509909015864057  0.7490092052239746  0.7490090137035964  1.0000
  I   I5        1.0  0.25099093070614903  0.7490090596592117  0.25099099706406947  1.0000
  I   I6        1.0  0.7490092100774894  0.2509908417121595  0.749009143450271  1.0000
