data_image0
_chemical_formula_structural       Ag2HfCl6
_chemical_formula_sum              "Ag2 Hf1 Cl6"
_cell_length_a       6.814697751363196
_cell_length_b       6.814697623345414
_cell_length_c       6.814697889415527
_cell_angle_alpha    59.99999953363901
_cell_angle_beta     59.999998282188635
_cell_angle_gamma    60.00000038490829

_space_group_name_H-M_alt    "P 1"
_space_group_IT_number       1

loop_
  _space_group_symop_operation_xyz
  'x, y, z'

loop_
  _atom_site_type_symbol
  _atom_site_label
  _atom_site_symmetry_multiplicity
  _atom_site_fract_x
  _atom_site_fract_y
  _atom_site_fract_z
  _atom_site_occupancy
  Ag  Ag1       1.0  0.25000001630201235  0.2500000071968761  0.2499999475191158  1.0000
  Ag  Ag2       1.0  0.7500000093704204  0.7499999622826711  0.7500000666016957  1.0000
  Hf  Hf1       1.0  2.619481215508684e-09  0.9999999514753087  2.093144978764711e-07  1.0000
  Cl  Cl1       1.0  0.2523518245836749  0.25235178114352197  0.7476482320158391  1.0000
  Cl  Cl2       1.0  0.7476481309652894  0.7476482817909914  0.25235186288646316  1.0000
  Cl  Cl3       1.0  0.7476483690235136  0.252351725361057  0.2523516907103599  1.0000
  Cl  Cl4       1.0  0.2523518617627208  0.7476480913555655  0.7476481094057009  1.0000
  Cl  Cl5       1.0  0.25235163465390914  0.7476482698741669  0.2523517853120636  1.0000
  Cl  Cl6       1.0  0.7476481470855786  0.2523519332427895  0.747648090149704  1.0000
