data_image0
_chemical_formula_structural       Ag2HgBr6
_chemical_formula_sum              "Ag2 Hg1 Br6"
_cell_length_a       7.205391311207121
_cell_length_b       7.205391433877257
_cell_length_c       7.205391127797393
_cell_angle_alpha    59.9999995863372
_cell_angle_beta     59.99999977419538
_cell_angle_gamma    60.00000055304563

_space_group_name_H-M_alt    "P 1"
_space_group_IT_number       1

loop_
  _space_group_symop_operation_xyz
  'x, y, z'

loop_
  _atom_site_type_symbol
  _atom_site_label
  _atom_site_symmetry_multiplicity
  _atom_site_fract_x
  _atom_site_fract_y
  _atom_site_fract_z
  _atom_site_occupancy
  Ag  Ag1       1.0  0.25000000342917467  0.25000008716352184  0.24999991123657256  1.0000
  Ag  Ag2       1.0  0.74999997380674  0.7499999334365463  0.7500000686405923  1.0000
  Hg  Hg1       1.0  3.572549327815024e-08  3.3995239063322643e-09  0.9999999679468436  1.0000
  Br  Br1       1.0  0.2654404415206334  0.2654404018983213  0.7345595825202528  1.0000
  Br  Br2       1.0  0.7345595679135429  0.7345595269146122  0.26544045629619367  1.0000
  Br  Br3       1.0  0.7345595774082716  0.2654404153310219  0.2654404527571748  1.0000
  Br  Br4       1.0  0.265440426132253  0.734559598469998  0.734559604801741  1.0000
  Br  Br5       1.0  0.26544041803271357  0.7345595994508431  0.2654403822083663  1.0000
  Br  Br6       1.0  0.7345595618417156  0.26544042284898683  0.7345595857847126  1.0000
