data_image0
_chemical_formula_structural       Ag2IrCl6
_chemical_formula_sum              "Ag2 Ir1 Cl6"
_cell_length_a       6.719479734360759
_cell_length_b       6.719479437513133
_cell_length_c       6.719479419556606
_cell_angle_alpha    59.999999717553735
_cell_angle_beta     60.00000111565091
_cell_angle_gamma    59.999998343905936

_space_group_name_H-M_alt    "P 1"
_space_group_IT_number       1

loop_
  _space_group_symop_operation_xyz
  'x, y, z'

loop_
  _atom_site_type_symbol
  _atom_site_label
  _atom_site_symmetry_multiplicity
  _atom_site_fract_x
  _atom_site_fract_y
  _atom_site_fract_z
  _atom_site_occupancy
  Ag  Ag1       1.0  0.24999999286514415  0.25000002373469105  0.24999997235367452  1.0000
  Ag  Ag2       1.0  0.7500000052238064  0.7499999964742654  0.7499999619466879  1.0000
  Ir  Ir1       1.0  8.951664335441485e-08  0.9999999015753746  3.719462259713702e-08  1.0000
  Cl  Cl1       1.0  0.24421689887416287  0.24421684129477209  0.7557831106372994  1.0000
  Cl  Cl2       1.0  0.7557831188293994  0.7557831716234713  0.24421683238321867  1.0000
  Cl  Cl3       1.0  0.7557831322973311  0.24421684543787991  0.24421682563513783  1.0000
  Cl  Cl4       1.0  0.24421683676877898  0.7557831948205371  0.7557832411380198  1.0000
  Cl  Cl5       1.0  0.2442167605100876  0.7557832344082241  0.24421679942968327  1.0000
  Cl  Cl6       1.0  0.7557831599364572  0.24421680220483713  0.7557832190654088  1.0000
