data_image0
_chemical_formula_structural       Ag2IrBr6
_chemical_formula_sum              "Ag2 Ir1 Br6"
_cell_length_a       7.085054530437604
_cell_length_b       7.085054547502536
_cell_length_c       7.085054773796293
_cell_angle_alpha    59.99999884192373
_cell_angle_beta     59.99999902793442
_cell_angle_gamma    59.99999966623596

_space_group_name_H-M_alt    "P 1"
_space_group_IT_number       1

loop_
  _space_group_symop_operation_xyz
  'x, y, z'

loop_
  _atom_site_type_symbol
  _atom_site_label
  _atom_site_symmetry_multiplicity
  _atom_site_fract_x
  _atom_site_fract_y
  _atom_site_fract_z
  _atom_site_occupancy
  Ag  Ag1       1.0  0.24999997751378444  0.250000038417571  0.24999998976763246  1.0000
  Ag  Ag2       1.0  0.749999918681287  0.7500000443788192  0.7500000060241908  1.0000
  Ir  Ir1       1.0  8.506155988171996e-08  0.99999995505558  0.999999948890153  1.0000
  Br  Br1       1.0  0.2475330088365009  0.2475329535855028  0.7524670338960032  1.0000
  Br  Br2       1.0  0.7524670163759295  0.7524670012921533  0.2475329994548935  1.0000
  Br  Br3       1.0  0.7524670133350141  0.2475329751509162  0.24753299658963054  1.0000
  Br  Br4       1.0  0.24753298366006346  0.7524670350429493  0.7524670387374763  1.0000
  Br  Br5       1.0  0.24753298771257323  0.7524670203796164  0.24753298012694697  1.0000
  Br  Br6       1.0  0.7524670101553007  0.2475329725279336  0.7524670125957386  1.0000
