data_image0
_chemical_formula_structural       Ag2InBr6
_chemical_formula_sum              "Ag2 In1 Br6"
_cell_length_a       7.214692037165043
_cell_length_b       7.214692023008131
_cell_length_c       7.21469207339585
_cell_angle_alpha    59.9999999005289
_cell_angle_beta     59.999998707373926
_cell_angle_gamma    60.00000029648438

_space_group_name_H-M_alt    "P 1"
_space_group_IT_number       1

loop_
  _space_group_symop_operation_xyz
  'x, y, z'

loop_
  _atom_site_type_symbol
  _atom_site_label
  _atom_site_symmetry_multiplicity
  _atom_site_fract_x
  _atom_site_fract_y
  _atom_site_fract_z
  _atom_site_occupancy
  Ag  Ag1       1.0  0.24999998900208356  0.2499999543113976  0.2500000241489989  1.0000
  Ag  Ag2       1.0  0.7499999911244104  0.749999997042266  0.74999999333388  1.0000
  In  In1       1.0  0.9999999040208792  0.999999913423901  1.0886099210363667e-08  1.0000
  Br  Br1       1.0  0.2601457232005671  0.2601457914925573  0.7398541709236096  1.0000
  Br  Br2       1.0  0.7398543562169055  0.7398543805452777  0.26014562004078773  1.0000
  Br  Br3       1.0  0.7398541722564044  0.2601457899495332  0.26014571889790045  1.0000
  Br  Br4       1.0  0.26014568498492463  0.7398543668101665  0.73985437513969  1.0000
  Br  Br5       1.0  0.2601458123428699  0.7398541739248188  0.26014576964254993  1.0000
  Br  Br6       1.0  0.7398543745236276  0.26014562294992727  0.7398543395249302  1.0000
