data_image0
_chemical_formula_structural       Ag2InCl6
_chemical_formula_sum              "Ag2 In1 Cl6"
_cell_length_a       6.806360183552316
_cell_length_b       6.806360064885688
_cell_length_c       6.806360181798914
_cell_angle_alpha    59.99999891711947
_cell_angle_beta     59.99999993452787
_cell_angle_gamma    59.99999881022171

_space_group_name_H-M_alt    "P 1"
_space_group_IT_number       1

loop_
  _space_group_symop_operation_xyz
  'x, y, z'

loop_
  _atom_site_type_symbol
  _atom_site_label
  _atom_site_symmetry_multiplicity
  _atom_site_fract_x
  _atom_site_fract_y
  _atom_site_fract_z
  _atom_site_occupancy
  Ag  Ag1       1.0  0.25000000098384056  0.2499999928892356  0.2500000091651804  1.0000
  Ag  Ag2       1.0  0.7500000174144176  0.749999991263594  0.7500000110277216  1.0000
  In  In1       1.0  0.9999999633796646  0.9999999928023513  0.9999998705799451  1.0000
  Cl  Cl1       1.0  0.2581332827043092  0.2581332712853336  0.741866753915203  1.0000
  Cl  Cl2       1.0  0.7418667074179006  0.7418667722481064  0.25813325513305985  1.0000
  Cl  Cl3       1.0  0.74186675949447  0.25813330130472506  0.25813332318655935  1.0000
  Cl  Cl4       1.0  0.25813313418287076  0.7418668178040371  0.741866735965256  1.0000
  Cl  Cl5       1.0  0.2581332650518818  0.7418666909333864  0.2581333416597929  1.0000
  Cl  Cl6       1.0  0.7418668546073356  0.2581331726588098  0.7418667175672274  1.0000
