data_image0
_chemical_formula_structural       Ag2IrI6
_chemical_formula_sum              "Ag2 Ir1 I6"
_cell_length_a       7.4964910883637
_cell_length_b       7.496490999087019
_cell_length_c       7.496491116962481
_cell_angle_alpha    60.00000051829291
_cell_angle_beta     60.000000048576744
_cell_angle_gamma    60.00000212440694

_space_group_name_H-M_alt    "P 1"
_space_group_IT_number       1

loop_
  _space_group_symop_operation_xyz
  'x, y, z'

loop_
  _atom_site_type_symbol
  _atom_site_label
  _atom_site_symmetry_multiplicity
  _atom_site_fract_x
  _atom_site_fract_y
  _atom_site_fract_z
  _atom_site_occupancy
  Ag  Ag1       1.0  0.25000004043565943  0.2499999777343142  0.24999999741170015  1.0000
  Ag  Ag2       1.0  0.7499999712577854  0.7499999397379692  0.7500000679940558  1.0000
  Ir  Ir1       1.0  0.9999999574929934  2.1238846809191866e-08  1.0634079973200128e-08  1.0000
  I   I1        1.0  0.2520875182187799  0.2520875137462227  0.7479124773963478  1.0000
  I   I2        1.0  0.7479124572516939  0.7479125262578737  0.25208750617022285  1.0000
  I   I3        1.0  0.7479124585392971  0.25208754867753724  0.2520874496107788  1.0000
  I   I4        1.0  0.2520875395074418  0.747912465186439  0.7479124997208686  1.0000
  I   I5        1.0  0.2520875543175528  0.7479124874509092  0.2520874915975067  1.0000
  I   I6        1.0  0.7479124978273053  0.2520875166105237  0.7479124969483945  1.0000
