data_image0
_chemical_formula_structural       Ag2InI6
_chemical_formula_sum              "Ag2 In1 I6"
_cell_length_a       7.842169505013556
_cell_length_b       7.842169755195171
_cell_length_c       7.842169713899975
_cell_angle_alpha    59.99999908209302
_cell_angle_beta     59.999999956793815
_cell_angle_gamma    60.000000968291616

_space_group_name_H-M_alt    "P 1"
_space_group_IT_number       1

loop_
  _space_group_symop_operation_xyz
  'x, y, z'

loop_
  _atom_site_type_symbol
  _atom_site_label
  _atom_site_symmetry_multiplicity
  _atom_site_fract_x
  _atom_site_fract_y
  _atom_site_fract_z
  _atom_site_occupancy
  Ag  Ag1       1.0  0.2499999964521497  0.2500000317565636  0.24999996922727646  1.0000
  Ag  Ag2       1.0  0.7499999729377966  0.7500000296765097  0.7500000558009604  1.0000
  In  In1       1.0  0.9999999701202399  0.9999999968765145  4.583024068190716e-08  1.0000
  I   I1        1.0  0.26030321149853697  0.26030319611824154  0.7396967849930058  1.0000
  I   I2        1.0  0.7396968010536406  0.7396968153390776  0.2603031682077121  1.0000
  I   I3        1.0  0.7396967723370181  0.26030321570486936  0.2603032061658006  1.0000
  I   I4        1.0  0.26030324838114083  0.739696753585406  0.7396967653106062  1.0000
  I   I5        1.0  0.26030321531482725  0.739696814137568  0.2603031733674491  1.0000
  I   I6        1.0  0.7396968094786609  0.260303147343995  0.7396968305794247  1.0000
