data_image0
_chemical_formula_structural       Ag2InF6
_chemical_formula_sum              "Ag2 In1 F6"
_cell_length_a       5.73543797481284
_cell_length_b       5.735437946352406
_cell_length_c       5.735438223200878
_cell_angle_alpha    59.99999830393874
_cell_angle_beta     59.99999735577882
_cell_angle_gamma    59.99999781515773

_space_group_name_H-M_alt    "P 1"
_space_group_IT_number       1

loop_
  _space_group_symop_operation_xyz
  'x, y, z'

loop_
  _atom_site_type_symbol
  _atom_site_label
  _atom_site_symmetry_multiplicity
  _atom_site_fract_x
  _atom_site_fract_y
  _atom_site_fract_z
  _atom_site_occupancy
  Ag  Ag1       1.0  0.25000000676484263  0.2500000004032657  0.25000001109553055  1.0000
  Ag  Ag2       1.0  0.7500000169797807  0.7499999990743981  0.7500000150891135  1.0000
  In  In1       1.0  0.9999999938380538  6.406197275562316e-09  0.999999987673053  1.0000
  F   F1        1.0  0.25586131408660434  0.25586130314510513  0.7441386673686057  1.0000
  F   F2        1.0  0.7441387355863255  0.7441387091449527  0.2558612505248451  1.0000
  F   F3        1.0  0.7441386937990513  0.25586129139012576  0.25586129491455467  1.0000
  F   F4        1.0  0.2558612861420559  0.7441386824627493  0.7441387468052371  1.0000
  F   F5        1.0  0.25586124395951215  0.7441387362972957  0.25586126487086575  1.0000
  F   F6        1.0  0.7441387336019453  0.2558612567741711  0.7441387248408066  1.0000
