data_image0
_chemical_formula_structural       Ag2MgI6
_chemical_formula_sum              "Ag2 Mg1 I6"
_cell_length_a       7.779270239559393
_cell_length_b       7.779270206094587
_cell_length_c       7.779270130448562
_cell_angle_alpha    59.99999935146927
_cell_angle_beta     60.00000034968449
_cell_angle_gamma    60.00000043745133

_space_group_name_H-M_alt    "P 1"
_space_group_IT_number       1

loop_
  _space_group_symop_operation_xyz
  'x, y, z'

loop_
  _atom_site_type_symbol
  _atom_site_label
  _atom_site_symmetry_multiplicity
  _atom_site_fract_x
  _atom_site_fract_y
  _atom_site_fract_z
  _atom_site_occupancy
  Ag  Ag1       1.0  0.25000001038362296  0.24999999017876035  0.24999999057090583  1.0000
  Ag  Ag2       1.0  0.7499999695730153  0.7500000083211578  0.749999992607479  1.0000
  Mg  Mg1       1.0  0.9999999445240983  5.510294470496253e-08  9.14546803901668e-08  1.0000
  I   I1        1.0  0.26121295313109444  0.26121291814345804  0.7387870685914996  1.0000
  I   I2        1.0  0.738787097399418  0.7387870378484728  0.2612129802529354  1.0000
  I   I3        1.0  0.7387871260401971  0.26121290754208226  0.26121288889761374  1.0000
  I   I4        1.0  0.2612129814505469  0.7387869933469041  0.7387870471824934  1.0000
  I   I5        1.0  0.26121289563437045  0.7387871322146617  0.2612128951023579  1.0000
  I   I6        1.0  0.7387870221887276  0.26121295917307963  0.7387870444185966  1.0000
