data_image0
_chemical_formula_structural       Ag2MnCl6
_chemical_formula_sum              "Ag2 Mn1 Cl6"
_cell_length_a       6.690874674459475
_cell_length_b       6.690874399441167
_cell_length_c       6.690874547117054
_cell_angle_alpha    60.000000148314925
_cell_angle_beta     60.00000056246955
_cell_angle_gamma    60.00000069719515

_space_group_name_H-M_alt    "P 1"
_space_group_IT_number       1

loop_
  _space_group_symop_operation_xyz
  'x, y, z'

loop_
  _atom_site_type_symbol
  _atom_site_label
  _atom_site_symmetry_multiplicity
  _atom_site_fract_x
  _atom_site_fract_y
  _atom_site_fract_z
  _atom_site_occupancy
  Ag  Ag1       1.0  0.24999997927581807  0.24999998323698694  0.25000001227176  1.0000
  Ag  Ag2       1.0  0.7500000187119735  0.7499999918117853  0.7499999917629105  1.0000
  Mn  Mn1       1.0  4.894699101214268e-08  1.4826811815886753e-07  0.9999999910668224  1.0000
  Cl  Cl1       1.0  0.23943779631509254  0.23943788559660342  0.7605621714051534  1.0000
  Cl  Cl2       1.0  0.7605619968278207  0.7605620619951071  0.23943793532933075  1.0000
  Cl  Cl3       1.0  0.7605621952088971  0.239437855299994  0.23943787829827193  1.0000
  Cl  Cl4       1.0  0.23943795154631115  0.7605620410385446  0.7605620040225765  1.0000
  Cl  Cl5       1.0  0.2394378645927623  0.7605621217491237  0.2394379708994468  1.0000
  Cl  Cl6       1.0  0.7605621598560248  0.2394379137051782  0.7605620151097016  1.0000
