data_image0
_chemical_formula_structural       Ag2MnBr6
_chemical_formula_sum              "Ag2 Mn1 Br6"
_cell_length_a       7.03281577015537
_cell_length_b       7.032815852885501
_cell_length_c       7.032815303552552
_cell_angle_alpha    60.00000547697392
_cell_angle_beta     60.00000285972593
_cell_angle_gamma    60.00000413091542

_space_group_name_H-M_alt    "P 1"
_space_group_IT_number       1

loop_
  _space_group_symop_operation_xyz
  'x, y, z'

loop_
  _atom_site_type_symbol
  _atom_site_label
  _atom_site_symmetry_multiplicity
  _atom_site_fract_x
  _atom_site_fract_y
  _atom_site_fract_z
  _atom_site_occupancy
  Ag  Ag1       1.0  0.24999999690531607  0.25000004077818044  0.2499999620339982  1.0000
  Ag  Ag2       1.0  0.7499999520422946  0.7500000265536146  0.750000048596963  1.0000
  Mn  Mn1       1.0  0.9999999825711264  0.9999999094434868  1.1513463537158629e-07  1.0000
  Br  Br1       1.0  0.23788960484604638  0.23788945070309117  0.7621104482572327  1.0000
  Br  Br2       1.0  0.7621105194663228  0.7621106619069612  0.2378893980198067  1.0000
  Br  Br3       1.0  0.7621105374885229  0.23788947839788713  0.23788946441303663  1.0000
  Br  Br4       1.0  0.23788951735587927  0.7621103451279073  0.7621106080629961  1.0000
  Br  Br5       1.0  0.23788947108508818  0.7621105817656414  0.2378894604458507  1.0000
  Br  Br6       1.0  0.7621104221212786  0.23788950994675104  0.7621104833949048  1.0000
