data_image0
_chemical_formula_structural       Ag2MnF6
_chemical_formula_sum              "Ag2 Mn1 F6"
_cell_length_a       5.63283478812052
_cell_length_b       5.632834627537507
_cell_length_c       5.632834673291433
_cell_angle_alpha    59.99999984878531
_cell_angle_beta     59.99999945658748
_cell_angle_gamma    59.999998924013795

_space_group_name_H-M_alt    "P 1"
_space_group_IT_number       1

loop_
  _space_group_symop_operation_xyz
  'x, y, z'

loop_
  _atom_site_type_symbol
  _atom_site_label
  _atom_site_symmetry_multiplicity
  _atom_site_fract_x
  _atom_site_fract_y
  _atom_site_fract_z
  _atom_site_occupancy
  Ag  Ag1       1.0  0.2500000314149318  0.24999991988555242  0.24999999268621298  1.0000
  Ag  Ag2       1.0  0.7499999879529972  0.7500000662323695  0.750000003963344  1.0000
  Mn  Mn1       1.0  2.157593721583037e-08  1.5220070607474006e-08  0.9999999762760806  1.0000
  F   F1        1.0  0.23218694541462864  0.23218688266751866  0.7678131225005849  1.0000
  F   F2        1.0  0.7678130443836084  0.7678131491106162  0.23218693889122025  1.0000
  F   F3        1.0  0.7678130958620982  0.23218683058269263  0.23218694276175014  1.0000
  F   F4        1.0  0.23218694439967458  0.7678130990035376  0.7678130113463579  1.0000
  F   F5        1.0  0.23218687721753228  0.7678131849715596  0.23218692112668946  1.0000
  F   F6        1.0  0.7678130528622443  0.23218689681537896  0.7678130883101819  1.0000
