data_image0
_chemical_formula_structural       Ag2MnI6
_chemical_formula_sum              "Ag2 Mn1 I6"
_cell_length_a       7.491121383971014
_cell_length_b       7.491121518444776
_cell_length_c       7.491121660120935
_cell_angle_alpha    59.9999996287762
_cell_angle_beta     59.99999945526342
_cell_angle_gamma    59.99999983477153

_space_group_name_H-M_alt    "P 1"
_space_group_IT_number       1

loop_
  _space_group_symop_operation_xyz
  'x, y, z'

loop_
  _atom_site_type_symbol
  _atom_site_label
  _atom_site_symmetry_multiplicity
  _atom_site_fract_x
  _atom_site_fract_y
  _atom_site_fract_z
  _atom_site_occupancy
  Ag  Ag1       1.0  0.25000003190593023  0.2499999630587451  0.24999995887794838  1.0000
  Ag  Ag2       1.0  0.7500000159349267  0.7500000314150228  0.7499999775623274  1.0000
  Mn  Mn1       1.0  1.5853444059026874e-07  0.9999999313329988  0.9999995078702332  1.0000
  I   I1        1.0  0.2456603370978211  0.2456603608353776  0.754339648737464  1.0000
  I   I2        1.0  0.7543396082769711  0.7543396450828909  0.24566035056746977  1.0000
  I   I3        1.0  0.7543394542972085  0.2456605231721416  0.24566054993851266  1.0000
  I   I4        1.0  0.24566021981328143  0.7543397508744162  0.7543398180356599  1.0000
  I   I5        1.0  0.24566046170404848  0.7543395512430344  0.24566044915412774  1.0000
  I   I6        1.0  0.754339708473194  0.2456602519440885  0.754339744691845  1.0000
