data_image0
_chemical_formula_structural       Ag2MnBr6
_chemical_formula_sum              "Ag2 Mn1 Br6"
_cell_length_a       7.034368688580439
_cell_length_b       7.034368706376052
_cell_length_c       7.034368911981699
_cell_angle_alpha    59.99999987179349
_cell_angle_beta     60.00000011156986
_cell_angle_gamma    60.00000105401728

_space_group_name_H-M_alt    "P 1"
_space_group_IT_number       1

loop_
  _space_group_symop_operation_xyz
  'x, y, z'

loop_
  _atom_site_type_symbol
  _atom_site_label
  _atom_site_symmetry_multiplicity
  _atom_site_fract_x
  _atom_site_fract_y
  _atom_site_fract_z
  _atom_site_occupancy
  Ag  Ag1       1.0  0.25000004523852215  0.25000002760822865  0.24999994091659306  1.0000
  Ag  Ag2       1.0  0.7500000097344731  0.7500000323331587  0.7499999905952197  1.0000
  Mn  Mn1       1.0  0.9999998239256784  8.009000467291998e-08  0.9999999953932669  1.0000
  Br  Br1       1.0  0.23770908729845422  0.23770903449730357  0.7622909239341324  1.0000
  Br  Br2       1.0  0.762290897604452  0.7622909697292953  0.23770905483261  1.0000
  Br  Br3       1.0  0.7622908860667229  0.2377091003832932  0.2377090440213862  1.0000
  Br  Br4       1.0  0.23770909989733285  0.7622909055843923  0.7622908608430649  1.0000
  Br  Br5       1.0  0.23770913916882877  0.7622908924541214  0.2377091694196694  1.0000
  Br  Br6       1.0  0.762291006787315  0.2377089585568148  0.7622910257749894  1.0000
