data_image0
_chemical_formula_structural       Ag2MgBr6
_chemical_formula_sum              "Ag2 Mg1 Br6"
_cell_length_a       7.118644899019131
_cell_length_b       7.118644713823229
_cell_length_c       7.118644921624024
_cell_angle_alpha    59.99999711604262
_cell_angle_beta     60.00000011028257
_cell_angle_gamma    59.99999996997616

_space_group_name_H-M_alt    "P 1"
_space_group_IT_number       1

loop_
  _space_group_symop_operation_xyz
  'x, y, z'

loop_
  _atom_site_type_symbol
  _atom_site_label
  _atom_site_symmetry_multiplicity
  _atom_site_fract_x
  _atom_site_fract_y
  _atom_site_fract_z
  _atom_site_occupancy
  Ag  Ag1       1.0  0.2500000053040755  0.24999999302855322  0.24999999047820595  1.0000
  Ag  Ag2       1.0  0.7499999858461242  0.7499999962904064  0.7500000171986239  1.0000
  Mg  Mg1       1.0  0.9999999672801131  0.9999999862361997  6.538469581414007e-08  1.0000
  Br  Br1       1.0  0.2569474279666085  0.2569474674430432  0.7430525361171624  1.0000
  Br  Br2       1.0  0.7430525283327643  0.743052563167313  0.2569474107441509  1.0000
  Br  Br3       1.0  0.7430525378523323  0.25694749157937347  0.2569474368590183  1.0000
  Br  Br4       1.0  0.25694751551036527  0.7430524960191138  0.7430524871908528  1.0000
  Br  Br5       1.0  0.2569474732617055  0.7430525758047639  0.25694745151268394  1.0000
  Br  Br6       1.0  0.7430525625364276  0.25694742555751876  0.7430526050804128  1.0000
