data_image0
_chemical_formula_structural       Ag2MnF6
_chemical_formula_sum              "Ag2 Mn1 F6"
_cell_length_a       5.630361358981112
_cell_length_b       5.630361374149705
_cell_length_c       5.630361233691263
_cell_angle_alpha    60.00000073866733
_cell_angle_beta     60.00000034993392
_cell_angle_gamma    60.000000741988394

_space_group_name_H-M_alt    "P 1"
_space_group_IT_number       1

loop_
  _space_group_symop_operation_xyz
  'x, y, z'

loop_
  _atom_site_type_symbol
  _atom_site_label
  _atom_site_symmetry_multiplicity
  _atom_site_fract_x
  _atom_site_fract_y
  _atom_site_fract_z
  _atom_site_occupancy
  Ag  Ag1       1.0  0.2499999584738022  0.250000004588122  0.24999998794266468  1.0000
  Ag  Ag2       1.0  0.7500000496189305  0.7500000202901193  0.7499999604945188  1.0000
  Mn  Mn1       1.0  0.9999999634579818  0.9999999804227419  5.2924827946612814e-08  1.0000
  F   F1        1.0  0.23226837362482014  0.2322683057372573  0.7677316819226444  1.0000
  F   F2        1.0  0.7677315421408049  0.7677315777496756  0.2322684242237016  1.0000
  F   F3        1.0  0.7677316954424577  0.23226833552510714  0.23226833558717158  1.0000
  F   F4        1.0  0.23226839383463543  0.7677316980541379  0.7677316123094536  1.0000
  F   F5        1.0  0.23226838599820182  0.7677316847466881  0.23226836664135764  1.0000
  F   F6        1.0  0.7677316048169284  0.2322683858118219  0.767731610220532  1.0000
