data_image0
_chemical_formula_structural       Ag2MoF6
_chemical_formula_sum              "Ag2 Mo1 F6"
_cell_length_a       5.839601152308717
_cell_length_b       5.839601211571423
_cell_length_c       5.839601303378315
_cell_angle_alpha    59.99999858694032
_cell_angle_beta     59.99999959798268
_cell_angle_gamma    60.0000000667094

_space_group_name_H-M_alt    "P 1"
_space_group_IT_number       1

loop_
  _space_group_symop_operation_xyz
  'x, y, z'

loop_
  _atom_site_type_symbol
  _atom_site_label
  _atom_site_symmetry_multiplicity
  _atom_site_fract_x
  _atom_site_fract_y
  _atom_site_fract_z
  _atom_site_occupancy
  Ag  Ag1       1.0  0.24999998903413817  0.2500000081809901  0.2500000259599563  1.0000
  Ag  Ag2       1.0  0.7500000065502862  0.7499999951806441  0.7499999700903558  1.0000
  Mo  Mo1       1.0  0.9999999931289166  1.4681164066596813e-08  0.9999999704082744  1.0000
  F   F1        1.0  0.240394650646754  0.24039463264280128  0.7596053912275983  1.0000
  F   F2        1.0  0.7596053335327075  0.7596053812053778  0.24039466008018417  1.0000
  F   F3        1.0  0.7596053025623967  0.2403946669386024  0.24039467939137021  1.0000
  F   F4        1.0  0.24039469070540348  0.7596053196445594  0.7596052816829026  1.0000
  F   F5        1.0  0.24039463868542674  0.759605367737084  0.24039465735850427  1.0000
  F   F6        1.0  0.759605366446546  0.24039461884607688  0.7596053851184125  1.0000
