data_image0
_chemical_formula_structural       Ag2MoBr6
_chemical_formula_sum              "Ag2 Mo1 Br6"
_cell_length_a       7.147139329016622
_cell_length_b       7.14713925159438
_cell_length_c       7.147139792765812
_cell_angle_alpha    59.99999891440914
_cell_angle_beta     59.999998984168755
_cell_angle_gamma    60.000003641467224

_space_group_name_H-M_alt    "P 1"
_space_group_IT_number       1

loop_
  _space_group_symop_operation_xyz
  'x, y, z'

loop_
  _atom_site_type_symbol
  _atom_site_label
  _atom_site_symmetry_multiplicity
  _atom_site_fract_x
  _atom_site_fract_y
  _atom_site_fract_z
  _atom_site_occupancy
  Ag  Ag1       1.0  0.25000002209837346  0.2500000157532885  0.24999995561612653  1.0000
  Ag  Ag2       1.0  0.7499999700612252  0.7499999821424724  0.7500000370703329  1.0000
  Mo  Mo1       1.0  0.9999998343927845  0.9999999297417563  1.76697493749872e-07  1.0000
  Br  Br1       1.0  0.2496152726480262  0.24961517787073687  0.7503847945544062  1.0000
  Br  Br2       1.0  0.7503849042765022  0.7503849588278901  0.24961508112131361  1.0000
  Br  Br3       1.0  0.7503847323760793  0.2496152366298237  0.24961530641124177  1.0000
  Br  Br4       1.0  0.24961533168810565  0.7503846618762408  0.750384641253006  1.0000
  Br  Br5       1.0  0.24961526708293127  0.7503847416400311  0.2496153086322794  1.0000
  Br  Br6       1.0  0.7503846553925242  0.24961529566888307  0.7503847019879969  1.0000
