data_image0
_chemical_formula_structural       Ag2MgF6
_chemical_formula_sum              "Ag2 Mg1 F6"
_cell_length_a       5.569892437905268
_cell_length_b       5.56989261365858
_cell_length_c       5.569892514185043
_cell_angle_alpha    60.00000054330971
_cell_angle_beta     60.00000192342974
_cell_angle_gamma    60.000000028459

_space_group_name_H-M_alt    "P 1"
_space_group_IT_number       1

loop_
  _space_group_symop_operation_xyz
  'x, y, z'

loop_
  _atom_site_type_symbol
  _atom_site_label
  _atom_site_symmetry_multiplicity
  _atom_site_fract_x
  _atom_site_fract_y
  _atom_site_fract_z
  _atom_site_occupancy
  Ag  Ag1       1.0  0.250000019169055  0.25000001352279105  0.249999963441278  1.0000
  Ag  Ag2       1.0  0.7499999050382675  0.7500000999377618  0.7500000176650911  1.0000
  Mg  Mg1       1.0  0.9999999991412865  8.79546584787197e-09  0.9999998919003504  1.0000
  F   F1        1.0  0.24850242398108663  0.2485024357669292  0.7514975683625003  1.0000
  F   F2        1.0  0.7514976280082881  0.7514974995854592  0.24850242533935948  1.0000
  F   F3        1.0  0.7514975432892441  0.24850240338488586  0.24850247155976035  1.0000
  F   F4        1.0  0.24850237302447842  0.7514976529051453  0.7514976031211399  1.0000
  F   F5        1.0  0.24850245529279502  0.7514975565448703  0.24850239206102753  1.0000
  F   F6        1.0  0.7514976324640662  0.24850231504039685  0.7514976874553218  1.0000
