data_image0
_chemical_formula_structural       Ag2MoCl6
_chemical_formula_sum              "Ag2 Mo1 Cl6"
_cell_length_a       6.757111585492357
_cell_length_b       6.757111939991338
_cell_length_c       6.757111665579723
_cell_angle_alpha    60.00000007099028
_cell_angle_beta     60.0000012284148
_cell_angle_gamma    60.000001949768624

_space_group_name_H-M_alt    "P 1"
_space_group_IT_number       1

loop_
  _space_group_symop_operation_xyz
  'x, y, z'

loop_
  _atom_site_type_symbol
  _atom_site_label
  _atom_site_symmetry_multiplicity
  _atom_site_fract_x
  _atom_site_fract_y
  _atom_site_fract_z
  _atom_site_occupancy
  Ag  Ag1       1.0  0.2499999585305286  0.24999997554615147  0.2500000657647289  1.0000
  Ag  Ag2       1.0  0.7500000019766045  0.7500000498903023  0.7499999259634496  1.0000
  Mo  Mo1       1.0  1.5989314443711176e-07  0.9999998894358464  3.4532398220022435e-08  1.0000
  Cl  Cl1       1.0  0.2473891537231083  0.247389117816103  0.7526109099330184  1.0000
  Cl  Cl2       1.0  0.7526108768297909  0.7526109384333103  0.2473891408800454  1.0000
  Cl  Cl3       1.0  0.752610828205534  0.24738908795236247  0.2473890723453166  1.0000
  Cl  Cl4       1.0  0.24738916912074566  0.7526108885458608  0.7526108706852809  1.0000
  Cl  Cl5       1.0  0.2473890097904518  0.752610993178415  0.24738888026139397  1.0000
  Cl  Cl6       1.0  0.7526108660670394  0.24738905038331072  0.7526110796123886  1.0000
