data_image0
_chemical_formula_structural       Ag2NiBr6
_chemical_formula_sum              "Ag2 Ni1 Br6"
_cell_length_a       6.92465056555518
_cell_length_b       6.924650249300815
_cell_length_c       6.924650607256181
_cell_angle_alpha    60.00000020044037
_cell_angle_beta     59.99999893304776
_cell_angle_gamma    59.99999975239973

_space_group_name_H-M_alt    "P 1"
_space_group_IT_number       1

loop_
  _space_group_symop_operation_xyz
  'x, y, z'

loop_
  _atom_site_type_symbol
  _atom_site_label
  _atom_site_symmetry_multiplicity
  _atom_site_fract_x
  _atom_site_fract_y
  _atom_site_fract_z
  _atom_site_occupancy
  Ag  Ag1       1.0  0.24999998728250278  0.24999997816333389  0.25000002738786387  1.0000
  Ag  Ag2       1.0  0.7499999911374797  0.7500000016996127  0.7500000238049878  1.0000
  Ni  Ni1       1.0  0.9999999758801879  0.9999999823132606  4.112090226716595e-08  1.0000
  Br  Br1       1.0  0.24566205425446358  0.24566206121035217  0.7543379417114395  1.0000
  Br  Br2       1.0  0.7543379448491359  0.7543379416453552  0.24566204143150544  1.0000
  Br  Br3       1.0  0.754337939144634  0.24566207062453976  0.24566207875824544  1.0000
  Br  Br4       1.0  0.2456620612218784  0.7543379534552557  0.7543379162470585  1.0000
  Br  Br5       1.0  0.24566207852155153  0.7543379549202703  0.24566206604915664  1.0000
  Br  Br6       1.0  0.7543379629434472  0.24566207092819872  0.7543378714196625  1.0000
