data_image0
_chemical_formula_structural       Ag2NiBr6
_chemical_formula_sum              "Ag2 Ni1 Br6"
_cell_length_a       6.926731639638506
_cell_length_b       6.926731485835255
_cell_length_c       6.9267315225918304
_cell_angle_alpha    60.0000000447854
_cell_angle_beta     60.000000218601464
_cell_angle_gamma    59.999999959851856

_space_group_name_H-M_alt    "P 1"
_space_group_IT_number       1

loop_
  _space_group_symop_operation_xyz
  'x, y, z'

loop_
  _atom_site_type_symbol
  _atom_site_label
  _atom_site_symmetry_multiplicity
  _atom_site_fract_x
  _atom_site_fract_y
  _atom_site_fract_z
  _atom_site_occupancy
  Ag  Ag1       1.0  0.24999998378432187  0.25000000413132634  0.24999999985353596  1.0000
  Ag  Ag2       1.0  0.7499999997976889  0.7500000070895516  0.7499999909836009  1.0000
  Ni  Ni1       1.0  4.248449292421975e-08  0.9999999575645788  2.1630699114800245e-08  1.0000
  Br  Br1       1.0  0.2457367935189359  0.2457367826746171  0.7542631997566331  1.0000
  Br  Br2       1.0  0.7542631976065542  0.7542632409232587  0.24573676235239478  1.0000
  Br  Br3       1.0  0.7542631974445658  0.24573676204140724  0.24573679561016534  1.0000
  Br  Br4       1.0  0.24573678691171943  0.7542632668608963  0.7542632062106744  1.0000
  Br  Br5       1.0  0.24573679539332302  0.7542632366464459  0.24573673550184727  1.0000
  Br  Br6       1.0  0.7542632136996078  0.2457367480522936  0.7542632645029926  1.0000
