data_image0
_chemical_formula_structural       Ag2NiCl6
_chemical_formula_sum              "Ag2 Ni1 Cl6"
_cell_length_a       6.580584699485661
_cell_length_b       6.580585008255243
_cell_length_c       6.580584817704016
_cell_angle_alpha    60.00000033171638
_cell_angle_beta     59.999999749840946
_cell_angle_gamma    60.00000016846898

_space_group_name_H-M_alt    "P 1"
_space_group_IT_number       1

loop_
  _space_group_symop_operation_xyz
  'x, y, z'

loop_
  _atom_site_type_symbol
  _atom_site_label
  _atom_site_symmetry_multiplicity
  _atom_site_fract_x
  _atom_site_fract_y
  _atom_site_fract_z
  _atom_site_occupancy
  Ag  Ag1       1.0  0.2500000044971021  0.24999999194482925  0.24999999382247773  1.0000
  Ag  Ag2       1.0  0.7500000335016574  0.7500000000294232  0.7499999700021421  1.0000
  Ni  Ni1       1.0  3.1672925423386945e-08  2.6056084053449515e-08  2.4322257445546295e-08  1.0000
  Cl  Cl1       1.0  0.24632452683024433  0.24632452576511124  0.7536754978401089  1.0000
  Cl  Cl2       1.0  0.7536754561521807  0.7536754680702902  0.2463245518273529  1.0000
  Cl  Cl3       1.0  0.7536754545594274  0.2463245236869007  0.2463244989397163  1.0000
  Cl  Cl4       1.0  0.24632452337175412  0.7536754589816083  0.7536754631006414  1.0000
  Cl  Cl5       1.0  0.24632452049324402  0.7536754781318364  0.24632451086360585  1.0000
  Cl  Cl6       1.0  0.7536754466968074  0.2463245157035655  0.75367549351328  1.0000
