data_image0
_chemical_formula_structural       Ag2NbF6
_chemical_formula_sum              "Ag2 Nb1 F6"
_cell_length_a       5.967048400097265
_cell_length_b       5.967048343630842
_cell_length_c       5.9670480752382655
_cell_angle_alpha    59.99999693254426
_cell_angle_beta     59.99999980638178
_cell_angle_gamma    59.99999865881496

_space_group_name_H-M_alt    "P 1"
_space_group_IT_number       1

loop_
  _space_group_symop_operation_xyz
  'x, y, z'

loop_
  _atom_site_type_symbol
  _atom_site_label
  _atom_site_symmetry_multiplicity
  _atom_site_fract_x
  _atom_site_fract_y
  _atom_site_fract_z
  _atom_site_occupancy
  Ag  Ag1       1.0  0.24999993055001435  0.24999996241212555  0.25000009181883326  1.0000
  Ag  Ag2       1.0  0.7499999873696162  0.7500000083347017  0.7499999058878573  1.0000
  Nb  Nb1       1.0  3.8018398646419716e-08  2.052514048832115e-09  0.9999999782886725  1.0000
  F   F1        1.0  0.23454755575089847  0.23454761059572032  0.7654524328283145  1.0000
  F   F2        1.0  0.765452480151148  0.7654524648293055  0.23454759432118727  1.0000
  F   F3        1.0  0.7654525152357979  0.2345473988216597  0.23454762289719608  1.0000
  F   F4        1.0  0.2345475694202152  0.7654524200391438  0.7654524210121741  1.0000
  F   F5        1.0  0.23454747025029835  0.7654525173445145  0.2345475239017886  1.0000
  F   F6        1.0  0.7654524170358342  0.23454767302129084  0.7654523659051902  1.0000
