data_image0
_chemical_formula_structural       Ag2NbI6
_chemical_formula_sum              "Ag2 Nb1 I6"
_cell_length_a       7.842136669368526
_cell_length_b       7.842136587476751
_cell_length_c       7.84213671545924
_cell_angle_alpha    59.999999219620776
_cell_angle_beta     59.999999577666706
_cell_angle_gamma    59.99999957460012

_space_group_name_H-M_alt    "P 1"
_space_group_IT_number       1

loop_
  _space_group_symop_operation_xyz
  'x, y, z'

loop_
  _atom_site_type_symbol
  _atom_site_label
  _atom_site_symmetry_multiplicity
  _atom_site_fract_x
  _atom_site_fract_y
  _atom_site_fract_z
  _atom_site_occupancy
  Ag  Ag1       1.0  0.24999999629727068  0.2499999787963628  0.25000001950861883  1.0000
  Ag  Ag2       1.0  0.7500000064410175  0.7499999941738007  0.7499999532752758  1.0000
  Nb  Nb1       1.0  0.9999999882205517  0.9999999999999999  3.649362833671829e-08  1.0000
  I   I1        1.0  0.24951577141291958  0.24951579507302582  0.7504842241036872  1.0000
  I   I2        1.0  0.75048422887044  0.7504842294348542  0.24951579299759746  1.0000
  I   I3        1.0  0.750484181296765  0.2495158060914383  0.24951580660033487  1.0000
  I   I4        1.0  0.24951584595226772  0.7504841684404742  0.7504841837512172  1.0000
  I   I5        1.0  0.24951580278167246  0.7504841865542202  0.24951582088070115  1.0000
  I   I6        1.0  0.7504841782707659  0.24951584263890667  0.7504841639633782  1.0000
