data_image0
_chemical_formula_structural       Ag2NbF6
_chemical_formula_sum              "Ag2 Nb1 F6"
_cell_length_a       5.959716590040657
_cell_length_b       5.959717286810476
_cell_length_c       5.959717369878718
_cell_angle_alpha    59.999999354701814
_cell_angle_beta     60.0000005737262
_cell_angle_gamma    60.00000212824139

_space_group_name_H-M_alt    "P 1"
_space_group_IT_number       1

loop_
  _space_group_symop_operation_xyz
  'x, y, z'

loop_
  _atom_site_type_symbol
  _atom_site_label
  _atom_site_symmetry_multiplicity
  _atom_site_fract_x
  _atom_site_fract_y
  _atom_site_fract_z
  _atom_site_occupancy
  Ag  Ag1       1.0  0.24999993675526436  0.249999977133461  0.25000003268373167  1.0000
  Ag  Ag2       1.0  0.7499999733086611  0.7500000177120006  0.7500000321015753  1.0000
  Nb  Nb1       1.0  3.1352734912823086e-08  0.9999999815046532  6.99476249812017e-09  1.0000
  F   F1        1.0  0.23481003240553439  0.23480992139836823  0.7651900398805759  1.0000
  F   F2        1.0  0.7651899590539352  0.76519003851144  0.234809951336831  1.0000
  F   F3        1.0  0.7651900336527879  0.2348099951604273  0.23480995982797787  1.0000
  F   F4        1.0  0.23480996598650922  0.7651900099602283  0.7651900147616834  1.0000
  F   F5        1.0  0.2348100202578009  0.765190012672697  0.2348100028203001  1.0000
  F   F6        1.0  0.7651899789315435  0.23480998217276539  0.7651900023009129  1.0000
