data_image0
_chemical_formula_structural       Ag2NbI6
_chemical_formula_sum              "Ag2 Nb1 I6"
_cell_length_a       7.841515536328093
_cell_length_b       7.841515668816774
_cell_length_c       7.841515508740052
_cell_angle_alpha    60.00000083218619
_cell_angle_beta     59.99999968582168
_cell_angle_gamma    60.000001786695236

_space_group_name_H-M_alt    "P 1"
_space_group_IT_number       1

loop_
  _space_group_symop_operation_xyz
  'x, y, z'

loop_
  _atom_site_type_symbol
  _atom_site_label
  _atom_site_symmetry_multiplicity
  _atom_site_fract_x
  _atom_site_fract_y
  _atom_site_fract_z
  _atom_site_occupancy
  Ag  Ag1       1.0  0.24999996291649199  0.2500000269268338  0.25000008562086573  1.0000
  Ag  Ag2       1.0  0.7499999807773573  0.7500000167437246  0.7499998959953209  1.0000
  Nb  Nb1       1.0  8.601771501756947e-08  0.9999999937525097  0.9999996770063483  1.0000
  I   I1        1.0  0.24951976361136227  0.249519765291961  0.7504802020360981  1.0000
  I   I2        1.0  0.750480197189085  0.7504802049705853  0.2495198434381788  1.0000
  I   I3        1.0  0.7504800928870495  0.2495198974446185  0.24951988356423815  1.0000
  I   I4        1.0  0.24951974701123736  0.7504803383362698  0.750480277065711  1.0000
  I   I5        1.0  0.24951989311639278  0.7504800258175532  0.24951986665087136  1.0000
  I   I6        1.0  0.7504802850444351  0.24951974296342988  0.7504802639782451  1.0000
