data_image0
_chemical_formula_structural       Ag2NiI6
_chemical_formula_sum              "Ag2 Ni1 I6"
_cell_length_a       7.412728968046927
_cell_length_b       7.412729068132101
_cell_length_c       7.412729080037261
_cell_angle_alpha    60.00000007584476
_cell_angle_beta     60.00000010063706
_cell_angle_gamma    60.000000148202254

_space_group_name_H-M_alt    "P 1"
_space_group_IT_number       1

loop_
  _space_group_symop_operation_xyz
  'x, y, z'

loop_
  _atom_site_type_symbol
  _atom_site_label
  _atom_site_symmetry_multiplicity
  _atom_site_fract_x
  _atom_site_fract_y
  _atom_site_fract_z
  _atom_site_occupancy
  Ag  Ag1       1.0  0.25000001290519963  0.2500000045507133  0.2500000155811111  1.0000
  Ag  Ag2       1.0  0.7499999941867571  0.7500000070432659  0.7499999535974788  1.0000
  Ni  Ni1       1.0  0.9999999727951356  0.9999999834778143  0.9999999854396927  1.0000
  I   I1        1.0  0.2540874323004805  0.2540873847271925  0.7459126050230019  1.0000
  I   I2        1.0  0.7459125930279488  0.7459126235623493  0.2540874012075877  1.0000
  I   I3        1.0  0.7459125859000617  0.2540873974195637  0.254087418870079  1.0000
  I   I4        1.0  0.25408738994287094  0.7459126191310712  0.7459126012275582  1.0000
  I   I5        1.0  0.2540874150793343  0.7459125815267993  0.2540874185687269  1.0000
  I   I6        1.0  0.7459125988104812  0.25408740032724536  0.7459126025518259  1.0000
