data_image0
_chemical_formula_structural       Ag2NbBr6
_chemical_formula_sum              "Ag2 Nb1 Br6"
_cell_length_a       7.2448510202499445
_cell_length_b       7.244851247016792
_cell_length_c       7.244851100305588
_cell_angle_alpha    59.99999808380447
_cell_angle_beta     59.99999887098922
_cell_angle_gamma    60.000000285808866

_space_group_name_H-M_alt    "P 1"
_space_group_IT_number       1

loop_
  _space_group_symop_operation_xyz
  'x, y, z'

loop_
  _atom_site_type_symbol
  _atom_site_label
  _atom_site_symmetry_multiplicity
  _atom_site_fract_x
  _atom_site_fract_y
  _atom_site_fract_z
  _atom_site_occupancy
  Ag  Ag1       1.0  0.24999991841767705  0.25000008252172207  0.24999996005367484  1.0000
  Ag  Ag2       1.0  0.7500000161484305  0.7499997995816468  0.7500001186356064  1.0000
  Nb  Nb1       1.0  3.432381495169259e-08  0.9999999830949613  1.4755552501821398e-08  1.0000
  Br  Br1       1.0  0.24789513719092704  0.24789517392515661  0.7521048698711851  1.0000
  Br  Br2       1.0  0.7521048464106924  0.7521048670855728  0.24789514625537537  1.0000
  Br  Br3       1.0  0.7521048508220368  0.24789516552898785  0.2478951726144212  1.0000
  Br  Br4       1.0  0.24789525779108323  0.7521048112425978  0.7521047813792773  1.0000
  Br  Br5       1.0  0.24789513134618124  0.7521049344522985  0.24789515612877924  1.0000
  Br  Br6       1.0  0.7521048120866601  0.24789517925009763  0.7521047705809328  1.0000
