data_image0
_chemical_formula_structural       Ag2NbCl6
_chemical_formula_sum              "Ag2 Nb1 Cl6"
_cell_length_a       6.810203973564468
_cell_length_b       6.810203757218282
_cell_length_c       6.8102039941919195
_cell_angle_alpha    59.999998661666275
_cell_angle_beta     60.00000030075528
_cell_angle_gamma    59.99999958729328

_space_group_name_H-M_alt    "P 1"
_space_group_IT_number       1

loop_
  _space_group_symop_operation_xyz
  'x, y, z'

loop_
  _atom_site_type_symbol
  _atom_site_label
  _atom_site_symmetry_multiplicity
  _atom_site_fract_x
  _atom_site_fract_y
  _atom_site_fract_z
  _atom_site_occupancy
  Ag  Ag1       1.0  0.24999997867475046  0.25000005285728666  0.24999995129129104  1.0000
  Ag  Ag2       1.0  0.7500000226205606  0.7499999445626363  0.7500000115569577  1.0000
  Nb  Nb1       1.0  2.9526578221709456e-08  0.9999999928064126  7.987336203977884e-08  1.0000
  Cl  Cl1       1.0  0.24746374751638323  0.24746381151805097  0.7525362584448917  1.0000
  Cl  Cl2       1.0  0.7525361622870721  0.752536241652173  0.24746379275660432  1.0000
  Cl  Cl3       1.0  0.7525362099630768  0.24746376267471348  0.24746374273910476  1.0000
  Cl  Cl4       1.0  0.24746390868631551  0.7525361268414006  0.7525361081919184  1.0000
  Cl  Cl5       1.0  0.24746377400105646  0.7525362653569895  0.24746379523680445  1.0000
  Cl  Cl6       1.0  0.752536184476582  0.24746378421644125  0.7525362716040016  1.0000
