data_image0
_chemical_formula_structural       Ag2NiI6
_chemical_formula_sum              "Ag2 Ni1 I6"
_cell_length_a       7.413452516705081
_cell_length_b       7.413452580470824
_cell_length_c       7.413452783361113
_cell_angle_alpha    59.99999957745611
_cell_angle_beta     59.9999998452668
_cell_angle_gamma    60.00000074314548

_space_group_name_H-M_alt    "P 1"
_space_group_IT_number       1

loop_
  _space_group_symop_operation_xyz
  'x, y, z'

loop_
  _atom_site_type_symbol
  _atom_site_label
  _atom_site_symmetry_multiplicity
  _atom_site_fract_x
  _atom_site_fract_y
  _atom_site_fract_z
  _atom_site_occupancy
  Ag  Ag1       1.0  0.2499999948205543  0.24999998156789935  0.25000002658704934  1.0000
  Ag  Ag2       1.0  0.7499999489343254  0.7500000653038831  0.7499999846176584  1.0000
  Ni  Ni1       1.0  0.9999999783667108  1.8172630526948164e-08  2.735941266546551e-08  1.0000
  I   I1        1.0  0.2540863001196301  0.25408625534406876  0.7459137233806213  1.0000
  I   I2        1.0  0.7459137597785349  0.7459136907522175  0.2540862814890914  1.0000
  I   I3        1.0  0.7459137627886797  0.2540862414593775  0.25408620352078576  1.0000
  I   I4        1.0  0.25408622909446743  0.7459137591547998  0.7459137541415246  1.0000
  I   I5        1.0  0.25408625715087607  0.7459136923045532  0.25408621267726667  1.0000
  I   I6        1.0  0.7459137634137828  0.2540863017013952  0.745913790602166  1.0000
