data_image0
_chemical_formula_structural       Ag2NbBr6
_chemical_formula_sum              "Ag2 Nb1 Br6"
_cell_length_a       7.242525468949043
_cell_length_b       7.242525495432038
_cell_length_c       7.2425251449217445
_cell_angle_alpha    60.000000859332104
_cell_angle_beta     60.000000375091766
_cell_angle_gamma    59.99999659345197

_space_group_name_H-M_alt    "P 1"
_space_group_IT_number       1

loop_
  _space_group_symop_operation_xyz
  'x, y, z'

loop_
  _atom_site_type_symbol
  _atom_site_label
  _atom_site_symmetry_multiplicity
  _atom_site_fract_x
  _atom_site_fract_y
  _atom_site_fract_z
  _atom_site_occupancy
  Ag  Ag1       1.0  0.2500000484735097  0.24999993114013191  0.250000028456448  1.0000
  Ag  Ag2       1.0  0.7500000013776633  0.7500001011909004  0.7499998806202067  1.0000
  Nb  Nb1       1.0  1.3017171689060616e-07  1.6910412289802618e-09  0.9999998443209163  1.0000
  Br  Br1       1.0  0.24795356301379162  0.24795357829509354  0.7520464472976027  1.0000
  Br  Br2       1.0  0.7520463258594171  0.7520463677925645  0.24795368618329797  1.0000
  Br  Br3       1.0  0.7520464748596436  0.2479534620381219  0.24795358035621176  1.0000
  Br  Br4       1.0  0.24795347540229912  0.7520465533824476  0.7520464988097364  1.0000
  Br  Br5       1.0  0.2479534798531611  0.7520465233858212  0.24795352095490758  1.0000
  Br  Br6       1.0  0.752046501828495  0.2479534886526538  0.7520465055316817  1.0000
