data_image0
_chemical_formula_structural       Ag2NbCl6
_chemical_formula_sum              "Ag2 Nb1 Cl6"
_cell_length_a       6.806146017736419
_cell_length_b       6.806146237119967
_cell_length_c       6.806146326521739
_cell_angle_alpha    59.9999968719559
_cell_angle_beta     59.99999780314656
_cell_angle_gamma    60.00000074272455

_space_group_name_H-M_alt    "P 1"
_space_group_IT_number       1

loop_
  _space_group_symop_operation_xyz
  'x, y, z'

loop_
  _atom_site_type_symbol
  _atom_site_label
  _atom_site_symmetry_multiplicity
  _atom_site_fract_x
  _atom_site_fract_y
  _atom_site_fract_z
  _atom_site_occupancy
  Ag  Ag1       1.0  0.2500000389976205  0.24999996792974033  0.25000000287633617  1.0000
  Ag  Ag2       1.0  0.7499999992600734  0.7500000279525784  0.7499999686822166  1.0000
  Nb  Nb1       1.0  1.8576855462974413e-08  0.9999999748074317  1.1350237275233485e-07  1.0000
  Cl  Cl1       1.0  0.24751994093120128  0.24751992038320203  0.7524800796750206  1.0000
  Cl  Cl2       1.0  0.7524800532513577  0.7524800143171712  0.2475199254116912  1.0000
  Cl  Cl3       1.0  0.7524798951694733  0.24752014661610633  0.24752010204948763  1.0000
  Cl  Cl4       1.0  0.2475201146231149  0.7524798888545291  0.7524798595396786  1.0000
  Cl  Cl5       1.0  0.24752004755821302  0.7524799785227303  0.24752004791642843  1.0000
  Cl  Cl6       1.0  0.7524798948514024  0.24752009113781434  0.7524799141074068  1.0000
