data_image0
_chemical_formula_structural       Ag2OsF6
_chemical_formula_sum              "Ag2 Os1 F6"
_cell_length_a       5.879891924562855
_cell_length_b       5.879892153942477
_cell_length_c       5.879891749280885
_cell_angle_alpha    59.99999955859536
_cell_angle_beta     60.000000675625586
_cell_angle_gamma    59.999999871272784

_space_group_name_H-M_alt    "P 1"
_space_group_IT_number       1

loop_
  _space_group_symop_operation_xyz
  'x, y, z'

loop_
  _atom_site_type_symbol
  _atom_site_label
  _atom_site_symmetry_multiplicity
  _atom_site_fract_x
  _atom_site_fract_y
  _atom_site_fract_z
  _atom_site_occupancy
  Ag  Ag1       1.0  0.24999998581988253  0.2500000008350651  0.24999998995710554  1.0000
  Ag  Ag2       1.0  0.7499999650766475  0.7500000150028197  0.7500000023317934  1.0000
  Os  Os1       1.0  4.538549913964947e-08  2.29123158952803e-08  0.9999998961219171  1.0000
  F   F1        1.0  0.23531361520216612  0.23531364057450038  0.7646864433801812  1.0000
  F   F2        1.0  0.7646863428553026  0.7646863773463174  0.23531369735082422  1.0000
  F   F3        1.0  0.7646864620008041  0.23531353611075106  0.23531353653045323  1.0000
  F   F4        1.0  0.23531354921916495  0.764686440151319  0.7646864079689795  1.0000
  F   F5        1.0  0.23531357766212394  0.7646864245971008  0.23531359115260206  1.0000
  F   F6        1.0  0.7646864565484083  0.23531354749909142  0.7646864170650861  1.0000
