data_image0
_chemical_formula_structural       Ag2OsI6
_chemical_formula_sum              "Ag2 Os1 I6"
_cell_length_a       7.556287383391705
_cell_length_b       7.556287456309728
_cell_length_c       7.556287479713986
_cell_angle_alpha    60.000000241960414
_cell_angle_beta     59.99999963341304
_cell_angle_gamma    60.00000014540217

_space_group_name_H-M_alt    "P 1"
_space_group_IT_number       1

loop_
  _space_group_symop_operation_xyz
  'x, y, z'

loop_
  _atom_site_type_symbol
  _atom_site_label
  _atom_site_symmetry_multiplicity
  _atom_site_fract_x
  _atom_site_fract_y
  _atom_site_fract_z
  _atom_site_occupancy
  Ag  Ag1       1.0  0.25000001115270204  0.24999994417690774  0.2500000389897581  1.0000
  Ag  Ag2       1.0  0.7500000531357021  0.7500000027177518  0.750000026007166  1.0000
  Os  Os1       1.0  0.9999999570110032  3.727906333736465e-08  0.999999972416739  1.0000
  I   I1        1.0  0.2516433475751759  0.2516433870509329  0.7483566401015876  1.0000
  I   I2        1.0  0.748356629005805  0.7483566716809166  0.25164333077957823  1.0000
  I   I3        1.0  0.7483566184168428  0.25164337923244245  0.251643362091903  1.0000
  I   I4        1.0  0.2516433098200907  0.7483566503244878  0.7483566157871169  1.0000
  I   I5        1.0  0.25164340474695107  0.7483566031053039  0.25164340439557165  1.0000
  I   I6        1.0  0.7483566678150867  0.25164333730603994  0.748356605446744  1.0000
