data_image0
_chemical_formula_structural       Ag2OsCl6
_chemical_formula_sum              "Ag2 Os1 Cl6"
_cell_length_a       6.725270869783322
_cell_length_b       6.725271247695025
_cell_length_c       6.725271194204358
_cell_angle_alpha    59.99999821243669
_cell_angle_beta     59.99999875153879
_cell_angle_gamma    59.99999781826426

_space_group_name_H-M_alt    "P 1"
_space_group_IT_number       1

loop_
  _space_group_symop_operation_xyz
  'x, y, z'

loop_
  _atom_site_type_symbol
  _atom_site_label
  _atom_site_symmetry_multiplicity
  _atom_site_fract_x
  _atom_site_fract_y
  _atom_site_fract_z
  _atom_site_occupancy
  Ag  Ag1       1.0  0.24999999221210997  0.25000002419401707  0.2500000038787643  1.0000
  Ag  Ag2       1.0  0.7499999695275238  0.7499999651366491  0.7499999930800257  1.0000
  Os  Os1       1.0  7.6147570837706e-09  0.9999999307978753  2.1872111608332258e-08  1.0000
  Cl  Cl1       1.0  0.24478890452754043  0.244788935421527  0.7552110717882596  1.0000
  Cl  Cl2       1.0  0.7552110917238102  0.7552111049001772  0.24478889877537008  1.0000
  Cl  Cl3       1.0  0.7552109987167708  0.24478899380175692  0.2447889264733616  1.0000
  Cl  Cl4       1.0  0.2447889878220013  0.7552110756576821  0.7552111146718495  1.0000
  Cl  Cl5       1.0  0.24478901572933606  0.7552110226333165  0.24478886010183332  1.0000
  Cl  Cl6       1.0  0.7552110455938446  0.24478896669734693  0.7552110989606159  1.0000
