data_image0
_chemical_formula_structural       Ag2OsBr6
_chemical_formula_sum              "Ag2 Os1 Br6"
_cell_length_a       7.133434693730339
_cell_length_b       7.133434552619067
_cell_length_c       7.133434605453215
_cell_angle_alpha    60.00000075478692
_cell_angle_beta     59.99999855446511
_cell_angle_gamma    59.99999868837821

_space_group_name_H-M_alt    "P 1"
_space_group_IT_number       1

loop_
  _space_group_symop_operation_xyz
  'x, y, z'

loop_
  _atom_site_type_symbol
  _atom_site_label
  _atom_site_symmetry_multiplicity
  _atom_site_fract_x
  _atom_site_fract_y
  _atom_site_fract_z
  _atom_site_occupancy
  Ag  Ag1       1.0  0.24999994985312948  0.24999998265114315  0.25000003034816987  1.0000
  Ag  Ag2       1.0  0.7499999715830473  0.7500000286480903  0.750000030338977  1.0000
  Os  Os1       1.0  0.9999999798543745  9.442992047612678e-08  0.999999801645189  1.0000
  Br  Br1       1.0  0.24615479500964457  0.24615476419399412  0.7538452306595989  1.0000
  Br  Br2       1.0  0.7538451584249358  0.7538452385207  0.24615478187253462  1.0000
  Br  Br3       1.0  0.7538453015910082  0.2461547582372443  0.24615465324715172  1.0000
  Br  Br4       1.0  0.24615465676421766  0.7538452977015879  0.753845327408892  1.0000
  Br  Br5       1.0  0.24615493036672706  0.7538450978122091  0.2461548174061238  1.0000
  Br  Br6       1.0  0.7538452649299355  0.24615472806099217  0.7538453168191285  1.0000
