data_image0
_chemical_formula_structural       Ag2PtCl6
_chemical_formula_sum              "Ag2 Pt1 Cl6"
_cell_length_a       6.727496542054971
_cell_length_b       6.727496472313282
_cell_length_c       6.7274965464035414
_cell_angle_alpha    59.99999815508621
_cell_angle_beta     59.99999895164336
_cell_angle_gamma    59.9999988410242

_space_group_name_H-M_alt    "P 1"
_space_group_IT_number       1

loop_
  _space_group_symop_operation_xyz
  'x, y, z'

loop_
  _atom_site_type_symbol
  _atom_site_label
  _atom_site_symmetry_multiplicity
  _atom_site_fract_x
  _atom_site_fract_y
  _atom_site_fract_z
  _atom_site_occupancy
  Ag  Ag1       1.0  0.25000002801676113  0.2499999685822351  0.2500000098647551  1.0000
  Ag  Ag2       1.0  0.7499999873761527  0.7499999949515092  0.7499999842765063  1.0000
  Pt  Pt1       1.0  0.9999999910194493  0.9999999908974689  1.9446600297181798e-08  1.0000
  Cl  Cl1       1.0  0.24463038565154396  0.24463033178587149  0.7553696386663233  1.0000
  Cl  Cl2       1.0  0.7553696885834732  0.75536966633749  0.24463033254206926  1.0000
  Cl  Cl3       1.0  0.7553696212518445  0.2446303684852045  0.24463036615654002  1.0000
  Cl  Cl4       1.0  0.24463035079699788  0.7553696478432189  0.7553696440695357  1.0000
  Cl  Cl5       1.0  0.2446303386462642  0.7553696435106712  0.2446303830599939  1.0000
  Cl  Cl6       1.0  0.7553696032006523  0.24463039648433274  0.7553696230015694  1.0000
