data_image0
_chemical_formula_structural       Ag2PtI6
_chemical_formula_sum              "Ag2 Pt1 I6"
_cell_length_a       7.510852789774431
_cell_length_b       7.510852914683023
_cell_length_c       7.510852998267216
_cell_angle_alpha    59.99999909026683
_cell_angle_beta     59.999999560328334
_cell_angle_gamma    60.00000141985176

_space_group_name_H-M_alt    "P 1"
_space_group_IT_number       1

loop_
  _space_group_symop_operation_xyz
  'x, y, z'

loop_
  _atom_site_type_symbol
  _atom_site_label
  _atom_site_symmetry_multiplicity
  _atom_site_fract_x
  _atom_site_fract_y
  _atom_site_fract_z
  _atom_site_occupancy
  Ag  Ag1       1.0  0.25000005891818194  0.2499999536272107  0.24999999904921044  1.0000
  Ag  Ag2       1.0  0.74999999004724  0.7499999505664735  0.750000065629963  1.0000
  Pt  Pt1       1.0  0.9999999524958579  4.565773730876711e-08  1.407209054470977e-07  1.0000
  I   I1        1.0  0.2534814575975225  0.2534815235588491  0.7465185082003806  1.0000
  I   I2        1.0  0.7465185364086483  0.7465184947791829  0.25348147762419593  1.0000
  I   I3        1.0  0.7465184726608523  0.2534815299766708  0.253481505214874  1.0000
  I   I4        1.0  0.2534816128285645  0.746518393784618  0.7465183636612553  1.0000
  I   I5        1.0  0.253481500283949  0.7465185167396406  0.25348150487173443  1.0000
  I   I6        1.0  0.7465184171624482  0.25348159291386896  0.7465184296385684  1.0000
