data_image0
_chemical_formula_structural       Ag2PF6
_chemical_formula_sum              "Ag2 P1 F6"
_cell_length_a       5.99031290802792
_cell_length_b       5.990313717650726
_cell_length_c       5.990313738482705
_cell_angle_alpha    60.000000868668295
_cell_angle_beta     59.99999482139777
_cell_angle_gamma    59.9999993166855

_space_group_name_H-M_alt    "P 1"
_space_group_IT_number       1

loop_
  _space_group_symop_operation_xyz
  'x, y, z'

loop_
  _atom_site_type_symbol
  _atom_site_label
  _atom_site_symmetry_multiplicity
  _atom_site_fract_x
  _atom_site_fract_y
  _atom_site_fract_z
  _atom_site_occupancy
  Ag  Ag1       1.0  0.24999998203036972  0.25000013325844217  0.24999995490660337  1.0000
  Ag  Ag2       1.0  0.7499999416982239  0.7499999561096967  0.750000070386086  1.0000
  P   P1        1.0  0.9999999972940042  0.9999999734209528  0.9999999946101815  1.0000
  F   F1        1.0  0.1924772406447434  0.19247751466838828  0.8075226315123685  1.0000
  F   F2        1.0  0.8075227776738853  0.8075225338089063  0.19247736025327802  1.0000
  F   F3        1.0  0.8075227353005744  0.19247739914036188  0.19247720826126763  1.0000
  F   F4        1.0  0.192477370054686  0.8075225327980329  0.8075228566831695  1.0000
  F   F5        1.0  0.1924773380377999  0.807522518428296  0.19247730783383762  1.0000
  F   F6        1.0  0.8075226876038065  0.19247741555464246  0.8075227525417522  1.0000
