data_image0
_chemical_formula_structural       Ag2PdF6
_chemical_formula_sum              "Ag2 Pd1 F6"
_cell_length_a       5.723978764204833
_cell_length_b       5.723978704914993
_cell_length_c       5.72397873412688
_cell_angle_alpha    60.00000133264968
_cell_angle_beta     60.000000612384085
_cell_angle_gamma    60.0000016129235

_space_group_name_H-M_alt    "P 1"
_space_group_IT_number       1

loop_
  _space_group_symop_operation_xyz
  'x, y, z'

loop_
  _atom_site_type_symbol
  _atom_site_label
  _atom_site_symmetry_multiplicity
  _atom_site_fract_x
  _atom_site_fract_y
  _atom_site_fract_z
  _atom_site_occupancy
  Ag  Ag1       1.0  0.25000000155413366  0.24999999126342345  0.25000000078154255  1.0000
  Ag  Ag2       1.0  0.7499999791296784  0.7500000080250541  0.7499999752821224  1.0000
  Pd  Pd1       1.0  0.9999999978813211  0.9999999700445632  0.9999999810963267  1.0000
  F   F1        1.0  0.24196455135670913  0.24196460713953086  0.7580354445429639  1.0000
  F   F2        1.0  0.7580353998611474  0.7580354563391685  0.2419646189807609  1.0000
  F   F3        1.0  0.7580353998922988  0.24196458772145182  0.24196466702882938  1.0000
  F   F4        1.0  0.24196465677783047  0.7580353409577849  0.758035365745539  1.0000
  F   F5        1.0  0.2419646229263595  0.7580353993588547  0.2419646485975516  1.0000
  F   F6        1.0  0.7580353822902204  0.24196465342147347  0.7580352867067681  1.0000
