data_image0
_chemical_formula_structural       Ag2PtBr6
_chemical_formula_sum              "Ag2 Pt1 Br6"
_cell_length_a       7.045295066779824
_cell_length_b       7.045295014315525
_cell_length_c       7.045294908576324
_cell_angle_alpha    60.00000074966621
_cell_angle_beta     59.99999977203176
_cell_angle_gamma    59.99999971671229

_space_group_name_H-M_alt    "P 1"
_space_group_IT_number       1

loop_
  _space_group_symop_operation_xyz
  'x, y, z'

loop_
  _atom_site_type_symbol
  _atom_site_label
  _atom_site_symmetry_multiplicity
  _atom_site_fract_x
  _atom_site_fract_y
  _atom_site_fract_z
  _atom_site_occupancy
  Ag  Ag1       1.0  0.24999998233238444  0.25000000163499714  0.2500000088906301  1.0000
  Ag  Ag2       1.0  0.7499999957855379  0.7499999962130568  0.750000023656309  1.0000
  Pt  Pt1       1.0  0.9999999858117027  2.7814190450867043e-08  0.9999999605411526  1.0000
  Br  Br1       1.0  0.24853326723938857  0.2485332322640042  0.7514667689739537  1.0000
  Br  Br2       1.0  0.7514667252656718  0.7514667273395375  0.24853326414657645  1.0000
  Br  Br3       1.0  0.7514668155097091  0.2485332051873968  0.24853318278836756  1.0000
  Br  Br4       1.0  0.24853322161102254  0.7514667926606566  0.7514667705786217  1.0000
  Br  Br5       1.0  0.2485332535692534  0.7514667754651028  0.24853325708007568  1.0000
  Br  Br6       1.0  0.7514667552913599  0.24853324324359402  0.7514667596009054  1.0000
