data_image0
_chemical_formula_structural       Ag2PbI6
_chemical_formula_sum              "Ag2 Pb1 I6"
_cell_length_a       8.100265035019795
_cell_length_b       8.100264898276793
_cell_length_c       8.100265340552658
_cell_angle_alpha    59.999997662777695
_cell_angle_beta     59.99999694535046
_cell_angle_gamma    60.000004522201365

_space_group_name_H-M_alt    "P 1"
_space_group_IT_number       1

loop_
  _space_group_symop_operation_xyz
  'x, y, z'

loop_
  _atom_site_type_symbol
  _atom_site_label
  _atom_site_symmetry_multiplicity
  _atom_site_fract_x
  _atom_site_fract_y
  _atom_site_fract_z
  _atom_site_occupancy
  Ag  Ag1       1.0  0.2500000065694133  0.24999996462831753  0.25000004451646524  1.0000
  Ag  Ag2       1.0  0.7499999644715527  0.7499999997236363  0.7500000144243106  1.0000
  Pb  Pb1       1.0  0.9999999552484033  0.9999999546405591  2.2529652881692923e-07  1.0000
  I   I1        1.0  0.27255185851562785  0.2725518520906425  0.727447985496905  1.0000
  I   I2        1.0  0.7274481445189825  0.7274481787884891  0.272552006900075  1.0000
  I   I3        1.0  0.7274480267477255  0.272551954869783  0.27255177479121273  1.0000
  I   I4        1.0  0.272551993393002  0.7274480760093499  0.7274480905380715  1.0000
  I   I5        1.0  0.27255201526264644  0.7274479924829902  0.27255170438700715  1.0000
  I   I6        1.0  0.7274480302062027  0.2725520308362382  0.7274481520581679  1.0000
