data_image0
_chemical_formula_structural       Ag2PdCl6
_chemical_formula_sum              "Ag2 Pd1 Cl6"
_cell_length_a       6.676158501361668
_cell_length_b       6.676158570504509
_cell_length_c       6.676158751758389
_cell_angle_alpha    59.999999456435795
_cell_angle_beta     59.999998499107654
_cell_angle_gamma    60.00000101643024

_space_group_name_H-M_alt    "P 1"
_space_group_IT_number       1

loop_
  _space_group_symop_operation_xyz
  'x, y, z'

loop_
  _atom_site_type_symbol
  _atom_site_label
  _atom_site_symmetry_multiplicity
  _atom_site_fract_x
  _atom_site_fract_y
  _atom_site_fract_z
  _atom_site_occupancy
  Ag  Ag1       1.0  0.24999998721038713  0.250000073404642  0.24999995401141295  1.0000
  Ag  Ag2       1.0  0.7500000201285804  0.7499998734924137  0.7500000525801712  1.0000
  Pd  Pd1       1.0  0.999999895877036  0.9999998972676983  1.4237218303533342e-07  1.0000
  Cl  Cl1       1.0  0.2477485445129477  0.24774851773038922  0.7522514358384877  1.0000
  Cl  Cl2       1.0  0.7522515374050652  0.7522515997756665  0.2477484781164201  1.0000
  Cl  Cl3       1.0  0.7522514359076603  0.24774856281163224  0.2477485429051674  1.0000
  Cl  Cl4       1.0  0.2477485650524549  0.7522515069972827  0.7522513949348424  1.0000
  Cl  Cl5       1.0  0.24774858477617565  0.7522513999068066  0.24774858072663816  1.0000
  Cl  Cl6       1.0  0.752251428554892  0.24774856533530287  0.7522513987176956  1.0000
