data_image0
_chemical_formula_structural       Ag2PdI6
_chemical_formula_sum              "Ag2 Pd1 I6"
_cell_length_a       7.488736826027082
_cell_length_b       7.488736731492175
_cell_length_c       7.488736922443765
_cell_angle_alpha    60.000000103525664
_cell_angle_beta     60.00000004157874
_cell_angle_gamma    60.00000023012548

_space_group_name_H-M_alt    "P 1"
_space_group_IT_number       1

loop_
  _space_group_symop_operation_xyz
  'x, y, z'

loop_
  _atom_site_type_symbol
  _atom_site_label
  _atom_site_symmetry_multiplicity
  _atom_site_fract_x
  _atom_site_fract_y
  _atom_site_fract_z
  _atom_site_occupancy
  Ag  Ag1       1.0  0.24999993034518983  0.24999998664307913  0.2500000934227275  1.0000
  Ag  Ag2       1.0  0.7499999457402534  0.7500000138990616  0.7500000691038359  1.0000
  Pd  Pd1       1.0  5.253473510207595e-08  0.9999999672910175  1.9439394011450324e-07  1.0000
  I   I1        1.0  0.2554333387468787  0.2554332576780896  0.7445667041917664  1.0000
  I   I2        1.0  0.7445667113266028  0.7445667019778204  0.2554332889628159  1.0000
  I   I3        1.0  0.7445667521529677  0.25543328539552035  0.2554332007363766  1.0000
  I   I4        1.0  0.25543334617153557  0.744566677531287  0.7445666331233791  1.0000
  I   I5        1.0  0.2554332581085716  0.7445667729066253  0.2554331857455944  1.0000
  I   I6        1.0  0.7445666652604688  0.25543333557516223  0.744566630766275  1.0000
