data_image0
_chemical_formula_structural       Ag2PbCl6
_chemical_formula_sum              "Ag2 Pb1 Cl6"
_cell_length_a       6.897425143297263
_cell_length_b       6.897425164968109
_cell_length_c       6.897425333850937
_cell_angle_alpha    60.000000412531435
_cell_angle_beta     59.99999894421095
_cell_angle_gamma    60.0000016488478

_space_group_name_H-M_alt    "P 1"
_space_group_IT_number       1

loop_
  _space_group_symop_operation_xyz
  'x, y, z'

loop_
  _atom_site_type_symbol
  _atom_site_label
  _atom_site_symmetry_multiplicity
  _atom_site_fract_x
  _atom_site_fract_y
  _atom_site_fract_z
  _atom_site_occupancy
  Ag  Ag1       1.0  0.2499999854353269  0.24999995775582648  0.2500000352412483  1.0000
  Ag  Ag2       1.0  0.7500000082176352  0.7500000188712027  0.7499999721704651  1.0000
  Pb  Pb1       1.0  0.999999819890229  0.9999999928973764  1.0665454455265031e-07  1.0000
  Cl  Cl1       1.0  0.2599276914488035  0.25992770638094637  0.7400723214971229  1.0000
  Cl  Cl2       1.0  0.7400723759140074  0.7400723554775327  0.2599276629867794  1.0000
  Cl  Cl3       1.0  0.7400722716716301  0.2599277292087075  0.2599276924868253  1.0000
  Cl  Cl4       1.0  0.25992780215263345  0.7400722278861162  0.7400722556090127  1.0000
  Cl  Cl5       1.0  0.2599278216983824  0.7400722014424143  0.25992772400276226  1.0000
  Cl  Cl6       1.0  0.7400722190992937  0.25992781957599476  0.7400722260423738  1.0000
