data_image0
_chemical_formula_structural       Ag2PdCl6
_chemical_formula_sum              "Ag2 Pd1 Cl6"
_cell_length_a       6.679499271458503
_cell_length_b       6.679499303249006
_cell_length_c       6.679499277756001
_cell_angle_alpha    60.00000013820101
_cell_angle_beta     59.99999983842312
_cell_angle_gamma    59.99999984122565

_space_group_name_H-M_alt    "P 1"
_space_group_IT_number       1

loop_
  _space_group_symop_operation_xyz
  'x, y, z'

loop_
  _atom_site_type_symbol
  _atom_site_label
  _atom_site_symmetry_multiplicity
  _atom_site_fract_x
  _atom_site_fract_y
  _atom_site_fract_z
  _atom_site_occupancy
  Ag  Ag1       1.0  0.2500000048886425  0.24999999262044548  0.25000000867524574  1.0000
  Ag  Ag2       1.0  0.7500000000152167  0.7499999906964513  0.7500000029796436  1.0000
  Pd  Pd1       1.0  2.8462504085169426e-09  1.8335878542125633e-09  3.508803610697461e-08  1.0000
  Cl  Cl1       1.0  0.24766805650494148  0.2476680689319367  0.7523319463785326  1.0000
  Cl  Cl2       1.0  0.7523319409776935  0.7523319107177844  0.2476680827975023  1.0000
  Cl  Cl3       1.0  0.7523319901029342  0.24766801950018344  0.24766804598012276  1.0000
  Cl  Cl4       1.0  0.2476680429488357  0.7523319986548821  0.7523319266961357  1.0000
  Cl  Cl5       1.0  0.24766804405016155  0.7523319506645889  0.24766803001329135  1.0000
  Cl  Cl6       1.0  0.752331923414991  0.24766806198971342  0.7523319258075202  1.0000
