data_image0
_chemical_formula_structural       Ag2PCl6
_chemical_formula_sum              "Ag2 P1 Cl6"
_cell_length_a       6.6795072698327935
_cell_length_b       6.679506988495615
_cell_length_c       6.6795075981486205
_cell_angle_alpha    60.00000153433554
_cell_angle_beta     60.000000681399285
_cell_angle_gamma    59.99999852701777

_space_group_name_H-M_alt    "P 1"
_space_group_IT_number       1

loop_
  _space_group_symop_operation_xyz
  'x, y, z'

loop_
  _atom_site_type_symbol
  _atom_site_label
  _atom_site_symmetry_multiplicity
  _atom_site_fract_x
  _atom_site_fract_y
  _atom_site_fract_z
  _atom_site_occupancy
  Ag  Ag1       1.0  0.24999995563616562  0.24999996698624874  0.24999989159883354  1.0000
  Ag  Ag2       1.0  0.7500000099549016  0.7499999541327409  0.7499998416758982  1.0000
  P   P1        1.0  6.506221668385922e-08  3.300455033907093e-08  1.5008309260924494e-07  1.0000
  Cl  Cl1       1.0  0.24038403230862  0.2403840471665562  0.7596159954606326  1.0000
  Cl  Cl2       1.0  0.759615882556336  0.7596158446150817  0.24038421799803425  1.0000
  Cl  Cl3       1.0  0.7596159760833293  0.24038403177561454  0.24038413682729576  1.0000
  Cl  Cl4       1.0  0.24038409796172752  0.7596159736883301  0.7596158204308664  1.0000
  Cl  Cl5       1.0  0.2403840284081966  0.7596160009192022  0.24038411394788556  1.0000
  Cl  Cl6       1.0  0.7596159198565838  0.24038416406670282  0.7596158294336703  1.0000
