data_image0
_chemical_formula_structural       Ag2PtBr6
_chemical_formula_sum              "Ag2 Pt1 Br6"
_cell_length_a       7.03954254678725
_cell_length_b       7.039542484768389
_cell_length_c       7.03954250207045
_cell_angle_alpha    59.99999923366346
_cell_angle_beta     60.00000080648351
_cell_angle_gamma    60.00000050056315

_space_group_name_H-M_alt    "P 1"
_space_group_IT_number       1

loop_
  _space_group_symop_operation_xyz
  'x, y, z'

loop_
  _atom_site_type_symbol
  _atom_site_label
  _atom_site_symmetry_multiplicity
  _atom_site_fract_x
  _atom_site_fract_y
  _atom_site_fract_z
  _atom_site_occupancy
  Ag  Ag1       1.0  0.2500000129670793  0.2499999972030987  0.24999999317975768  1.0000
  Ag  Ag2       1.0  0.7499999885321803  0.7499999950889107  0.7499999944607133  1.0000
  Pt  Pt1       1.0  1.009029752245023e-07  4.1755379791011304e-08  4.941730586521342e-08  1.0000
  Br  Br1       1.0  0.2486981057554721  0.24869808205012445  0.7513018914309407  1.0000
  Br  Br2       1.0  0.7513018101010757  0.7513018423893917  0.24869818290096085  1.0000
  Br  Br3       1.0  0.7513018415194428  0.2486981331627294  0.24869814229198747  1.0000
  Br  Br4       1.0  0.2486982011040444  0.7513018243331309  0.7513018151940544  1.0000
  Br  Br5       1.0  0.24869812215928713  0.7513019093999417  0.24869808909855626  1.0000
  Br  Br6       1.0  0.7513018163771858  0.24869817336205757  0.7513018421719068  1.0000
