data_image0
_chemical_formula_structural       Ag2PtCl6
_chemical_formula_sum              "Ag2 Pt1 Cl6"
_cell_length_a       6.725169950356171
_cell_length_b       6.725170112486032
_cell_length_c       6.725169748614591
_cell_angle_alpha    60.00000232192063
_cell_angle_beta     60.00000151566035
_cell_angle_gamma    60.00000113884074

_space_group_name_H-M_alt    "P 1"
_space_group_IT_number       1

loop_
  _space_group_symop_operation_xyz
  'x, y, z'

loop_
  _atom_site_type_symbol
  _atom_site_label
  _atom_site_symmetry_multiplicity
  _atom_site_fract_x
  _atom_site_fract_y
  _atom_site_fract_z
  _atom_site_occupancy
  Ag  Ag1       1.0  0.2500000077301814  0.24999998465593193  0.25000001259536053  1.0000
  Ag  Ag2       1.0  0.749999998822449  0.7500000013173279  0.749999963843408  1.0000
  Pt  Pt1       1.0  6.832194525659161e-09  6.19186190513719e-08  0.9999999909027658  1.0000
  Cl  Cl1       1.0  0.2446859372994592  0.2446858704187035  0.7553141012725713  1.0000
  Cl  Cl2       1.0  0.7553142111409449  0.7553139680425512  0.2446859240738035  1.0000
  Cl  Cl3       1.0  0.7553140200117048  0.2446858891598161  0.24468589780325678  1.0000
  Cl  Cl4       1.0  0.24468588792593413  0.7553141660166066  0.755314056167643  1.0000
  Cl  Cl5       1.0  0.24468590290268216  0.7553141439137226  0.24468590931005724  1.0000
  Cl  Cl6       1.0  0.755314013221134  0.2446859021570214  0.7553141506941368  1.0000
