data_image0
_chemical_formula_structural       Ag2PI6
_chemical_formula_sum              "Ag2 P1 I6"
_cell_length_a       7.584630169961763
_cell_length_b       7.584630000179931
_cell_length_c       7.584630312847121
_cell_angle_alpha    59.9999985401084
_cell_angle_beta     59.99999895257539
_cell_angle_gamma    59.99999965011496

_space_group_name_H-M_alt    "P 1"
_space_group_IT_number       1

loop_
  _space_group_symop_operation_xyz
  'x, y, z'

loop_
  _atom_site_type_symbol
  _atom_site_label
  _atom_site_symmetry_multiplicity
  _atom_site_fract_x
  _atom_site_fract_y
  _atom_site_fract_z
  _atom_site_occupancy
  Ag  Ag1       1.0  0.2500000301707917  0.24999999590374855  0.24999999172474255  1.0000
  Ag  Ag2       1.0  0.7499999673650746  0.7500000054737376  0.7499999804022228  1.0000
  P   P1        1.0  0.9999999923878916  0.9999999999999999  0.9999999800738494  1.0000
  I   I1        1.0  0.2561552049068968  0.2561551893488957  0.7438447869861504  1.0000
  I   I2        1.0  0.7438448204019612  0.7438447926513254  0.2561552152228029  1.0000
  I   I3        1.0  0.7438448074849426  0.2561551878781215  0.2561551943235447  1.0000
  I   I4        1.0  0.25615517005889604  0.7438448506391225  0.7438448074647741  1.0000
  I   I5        1.0  0.25615519849344254  0.7438448035608697  0.25615522119294454  1.0000
  I   I6        1.0  0.7438448163431644  0.2561551687507188  0.743844820102479  1.0000
