data_image0
_chemical_formula_structural       Ag2ReF6
_chemical_formula_sum              "Ag2 Re1 F6"
_cell_length_a       5.896683823527105
_cell_length_b       5.8966840483251035
_cell_length_c       5.896684012884606
_cell_angle_alpha    60.0000007275072
_cell_angle_beta     59.999999892290674
_cell_angle_gamma    60.00000100049017

_space_group_name_H-M_alt    "P 1"
_space_group_IT_number       1

loop_
  _space_group_symop_operation_xyz
  'x, y, z'

loop_
  _atom_site_type_symbol
  _atom_site_label
  _atom_site_symmetry_multiplicity
  _atom_site_fract_x
  _atom_site_fract_y
  _atom_site_fract_z
  _atom_site_occupancy
  Ag  Ag1       1.0  0.2500000433427677  0.24999995826695562  0.24999999072982065  1.0000
  Ag  Ag2       1.0  0.7500000095654444  0.750000030576322  0.749999971491847  1.0000
  Re  Re1       1.0  2.4526955634281588e-08  1.4539042505696866e-08  0.9999999889463431  1.0000
  F   F1        1.0  0.2355944972562232  0.23559445600557763  0.7644054949952184  1.0000
  F   F2        1.0  0.7644055061025541  0.764405563992791  0.23559445268146376  1.0000
  F   F3        1.0  0.7644054426276177  0.2355945469076207  0.23559452896643995  1.0000
  F   F4        1.0  0.23559449116514025  0.7644054585517057  0.7644055336851131  1.0000
  F   F5        1.0  0.2355945283141911  0.7644054552127945  0.23559453196442867  1.0000
  F   F6        1.0  0.7644054649378879  0.23559451286042263  0.7644054976042296  1.0000
