data_image0
_chemical_formula_structural       Ag2RuI6
_chemical_formula_sum              "Ag2 Ru1 I6"
_cell_length_a       7.517272753451079
_cell_length_b       7.517272771318836
_cell_length_c       7.5172729035767745
_cell_angle_alpha    59.99999921342959
_cell_angle_beta     60.000001022212295
_cell_angle_gamma    60.00000182320989

_space_group_name_H-M_alt    "P 1"
_space_group_IT_number       1

loop_
  _space_group_symop_operation_xyz
  'x, y, z'

loop_
  _atom_site_type_symbol
  _atom_site_label
  _atom_site_symmetry_multiplicity
  _atom_site_fract_x
  _atom_site_fract_y
  _atom_site_fract_z
  _atom_site_occupancy
  Ag  Ag1       1.0  0.2499999518421931  0.25000006238713235  0.249999988789092  1.0000
  Ag  Ag2       1.0  0.7499999999964415  0.7500000486759182  0.7499999859896708  1.0000
  Ru  Ru1       1.0  0.9999999643138254  0.9999999918537938  7.778751524837781e-08  1.0000
  I   I1        1.0  0.2522942925578524  0.2522942379215221  0.7477057517361111  1.0000
  I   I2        1.0  0.7477057823229522  0.7477057574654228  0.2522942193596212  1.0000
  I   I3        1.0  0.747705761961862  0.2522943034773212  0.25229429809571924  1.0000
  I   I4        1.0  0.25229430691582644  0.7477056039306118  0.7477056987067625  1.0000
  I   I5        1.0  0.2522942183219709  0.7477057108720149  0.2522942780052744  1.0000
  I   I6        1.0  0.747705721385281  0.25229428451492747  0.7477057074664476  1.0000
