data_image0
_chemical_formula_structural       Ag2ReBr6
_chemical_formula_sum              "Ag2 Re1 Br6"
_cell_length_a       7.158430258303546
_cell_length_b       7.158430406965014
_cell_length_c       7.158430373948421
_cell_angle_alpha    59.99999805968578
_cell_angle_beta     59.999999768199324
_cell_angle_gamma    59.99999978415476

_space_group_name_H-M_alt    "P 1"
_space_group_IT_number       1

loop_
  _space_group_symop_operation_xyz
  'x, y, z'

loop_
  _atom_site_type_symbol
  _atom_site_label
  _atom_site_symmetry_multiplicity
  _atom_site_fract_x
  _atom_site_fract_y
  _atom_site_fract_z
  _atom_site_occupancy
  Ag  Ag1       1.0  0.24999999019091437  0.25000002603713034  0.2499999595901132  1.0000
  Ag  Ag2       1.0  0.7499999912826052  0.7500000353385726  0.7500000113368414  1.0000
  Re  Re1       1.0  0.9999999792119587  0.9999998494396879  1.4294930481470097e-07  1.0000
  Br  Br1       1.0  0.24635487873177545  0.24635491424584233  0.7536451066111916  1.0000
  Br  Br2       1.0  0.7536452025560079  0.7536451573953374  0.2463547967033043  1.0000
  Br  Br3       1.0  0.7536450741293388  0.24635498473130066  0.2463548605869167  1.0000
  Br  Br4       1.0  0.24635489768258545  0.7536450475588874  0.7536451492709533  1.0000
  Br  Br5       1.0  0.24635488223530436  0.7536450892601778  0.24635484479520292  1.0000
  Br  Br6       1.0  0.7536451130401525  0.24635489683537068  0.753645128931776  1.0000
