data_image0
_chemical_formula_structural       Ag2RhCl6
_chemical_formula_sum              "Ag2 Rh1 Cl6"
_cell_length_a       6.694309767073934
_cell_length_b       6.6943099741812135
_cell_length_c       6.694310220523313
_cell_angle_alpha    59.99999972032722
_cell_angle_beta     59.99999766173922
_cell_angle_gamma    60.00000195687031

_space_group_name_H-M_alt    "P 1"
_space_group_IT_number       1

loop_
  _space_group_symop_operation_xyz
  'x, y, z'

loop_
  _atom_site_type_symbol
  _atom_site_label
  _atom_site_symmetry_multiplicity
  _atom_site_fract_x
  _atom_site_fract_y
  _atom_site_fract_z
  _atom_site_occupancy
  Ag  Ag1       1.0  0.2500000380852301  0.2499999367119601  0.2500000350627968  1.0000
  Ag  Ag2       1.0  0.7500000122922867  0.7499999711346172  0.7499999457096127  1.0000
  Rh  Rh1       1.0  0.9999999795792112  4.573828082579908e-08  2.3381922526181704e-07  1.0000
  Cl  Cl1       1.0  0.2459154146586558  0.24591527234477023  0.7540847087707775  1.0000
  Cl  Cl2       1.0  0.754084899577567  0.7540845476843189  0.24591525269609305  1.0000
  Cl  Cl3       1.0  0.7540845650281348  0.24591534130071557  0.24591536349282508  1.0000
  Cl  Cl4       1.0  0.24591534986559976  0.7540846159431976  0.7540844795722961  1.0000
  Cl  Cl5       1.0  0.24591529736312978  0.7540845627866872  0.24591552201283073  1.0000
  Cl  Cl6       1.0  0.7540844263925619  0.24591570913658067  0.7540844684144605  1.0000
