data_image0
_chemical_formula_structural       Ag2RuCl6
_chemical_formula_sum              "Ag2 Ru1 Cl6"
_cell_length_a       6.684424879037211
_cell_length_b       6.684424851712791
_cell_length_c       6.68442509390007
_cell_angle_alpha    59.99999407763472
_cell_angle_beta     59.999997930042746
_cell_angle_gamma    59.99999640845722

_space_group_name_H-M_alt    "P 1"
_space_group_IT_number       1

loop_
  _space_group_symop_operation_xyz
  'x, y, z'

loop_
  _atom_site_type_symbol
  _atom_site_label
  _atom_site_symmetry_multiplicity
  _atom_site_fract_x
  _atom_site_fract_y
  _atom_site_fract_z
  _atom_site_occupancy
  Ag  Ag1       1.0  0.24999998441419571  0.24999996180209072  0.25000003447329117  1.0000
  Ag  Ag2       1.0  0.7500000193376835  0.7499999825148302  0.7499999170969947  1.0000
  Ru  Ru1       1.0  3.2453253315565182e-09  1.099340932097506e-08  2.2925099736723358e-07  1.0000
  Cl  Cl1       1.0  0.24632008475332884  0.24631991121559219  0.7536799817883443  1.0000
  Cl  Cl2       1.0  0.7536798806263637  0.7536801430355397  0.24631992951288093  1.0000
  Cl  Cl3       1.0  0.7536801961249474  0.2463199134217098  0.2463199656940121  1.0000
  Cl  Cl4       1.0  0.2463200490358048  0.7536799026386273  0.7536800041008803  1.0000
  Cl  Cl5       1.0  0.24631978445118696  0.7536800433090319  0.24631997564499317  1.0000
  Cl  Cl6       1.0  0.7536799972409959  0.24632013186973162  0.7536799834923326  1.0000
