data_image0
_chemical_formula_structural       Ag2ReI6
_chemical_formula_sum              "Ag2 Re1 I6"
_cell_length_a       7.6392946056493365
_cell_length_b       7.639294466889915
_cell_length_c       7.639294455977708
_cell_angle_alpha    59.999999641083036
_cell_angle_beta     59.99999771251054
_cell_angle_gamma    59.999998925506716

_space_group_name_H-M_alt    "P 1"
_space_group_IT_number       1

loop_
  _space_group_symop_operation_xyz
  'x, y, z'

loop_
  _atom_site_type_symbol
  _atom_site_label
  _atom_site_symmetry_multiplicity
  _atom_site_fract_x
  _atom_site_fract_y
  _atom_site_fract_z
  _atom_site_occupancy
  Ag  Ag1       1.0  0.24999999855918276  0.24999997753646275  0.24999998233920584  1.0000
  Ag  Ag2       1.0  0.7500000403343564  0.7500000480410315  0.7499999455146749  1.0000
  Re  Re1       1.0  1.619982067136062e-08  0.9999999695388719  0.9999999966584822  1.0000
  I   I1        1.0  0.24999315892620222  0.2499932264263762  0.7500068106997105  1.0000
  I   I2        1.0  0.7500067819014122  0.750006789531815  0.2499932089584073  1.0000
  I   I3        1.0  0.750006751841367  0.2499932396270196  0.24999321241352573  1.0000
  I   I4        1.0  0.24999317037373453  0.7500068276341243  0.7500068236249077  1.0000
  I   I5        1.0  0.24999325695260266  0.7500067891190305  0.24999319728828434  1.0000
  I   I6        1.0  0.7500068213795393  0.24999314988473198  0.7500068261293381  1.0000
