data_image0
_chemical_formula_structural       Ag2RuBr6
_chemical_formula_sum              "Ag2 Ru1 Br6"
_cell_length_a       7.074075058357607
_cell_length_b       7.074075031292454
_cell_length_c       7.074075043436155
_cell_angle_alpha    60.000000340641755
_cell_angle_beta     59.99999982626053
_cell_angle_gamma    60.00000007979809

_space_group_name_H-M_alt    "P 1"
_space_group_IT_number       1

loop_
  _space_group_symop_operation_xyz
  'x, y, z'

loop_
  _atom_site_type_symbol
  _atom_site_label
  _atom_site_symmetry_multiplicity
  _atom_site_fract_x
  _atom_site_fract_y
  _atom_site_fract_z
  _atom_site_occupancy
  Ag  Ag1       1.0  0.25000001710091707  0.25000001063318833  0.2499999904217146  1.0000
  Ag  Ag2       1.0  0.7499999921779031  0.7499999938106459  0.7500000128039656  1.0000
  Ru  Ru1       1.0  3.2960014068671836e-08  0.9999999549858233  5.691712650286538e-08  1.0000
  Br  Br1       1.0  0.24814598552130654  0.2481459521114062  0.7518540394682218  1.0000
  Br  Br2       1.0  0.7518540079126134  0.7518540557950569  0.2481459642941446  1.0000
  Br  Br3       1.0  0.7518540751487677  0.24814590747189602  0.24814595469498796  1.0000
  Br  Br4       1.0  0.24814596123699137  0.7518540450325031  0.7518540411563669  1.0000
  Br  Br5       1.0  0.2481459413719481  0.7518540838511728  0.2481459259383994  1.0000
  Br  Br6       1.0  0.7518539870160951  0.2481459967704988  0.7518540160311942  1.0000
