data_image0
_chemical_formula_structural       Ag2RhF6
_chemical_formula_sum              "Ag2 Rh1 F6"
_cell_length_a       5.748333415354109
_cell_length_b       5.748333515737816
_cell_length_c       5.748333412576863
_cell_angle_alpha    59.999999406598924
_cell_angle_beta     59.99999903079866
_cell_angle_gamma    60.00000045507508

_space_group_name_H-M_alt    "P 1"
_space_group_IT_number       1

loop_
  _space_group_symop_operation_xyz
  'x, y, z'

loop_
  _atom_site_type_symbol
  _atom_site_label
  _atom_site_symmetry_multiplicity
  _atom_site_fract_x
  _atom_site_fract_y
  _atom_site_fract_z
  _atom_site_occupancy
  Ag  Ag1       1.0  0.2500000262707759  0.24999995550985948  0.25000000565118335  1.0000
  Ag  Ag2       1.0  0.7499999685917131  0.7500000284558299  0.7499999841421925  1.0000
  Rh  Rh1       1.0  2.094053094547304e-08  0.9999999552572199  2.2338932785771184e-08  1.0000
  F   F1        1.0  0.23980576182546165  0.2398057342147478  0.760194277168584  1.0000
  F   F2        1.0  0.760194296220591  0.7601943072773732  0.23980570445883284  1.0000
  F   F3        1.0  0.7601942910638693  0.2398056871661836  0.23980577020177435  1.0000
  F   F4        1.0  0.23980575239525012  0.7601942414036833  0.7601942021155819  1.0000
  F   F5        1.0  0.2398056833939259  0.7601943253016714  0.23980580810373783  1.0000
  F   F6        1.0  0.7601941969066915  0.23980576732505482  0.7601942055156713  1.0000
