data_image0
_chemical_formula_structural       Ag2RhBr6
_chemical_formula_sum              "Ag2 Rh1 Br6"
_cell_length_a       7.037365287075375
_cell_length_b       7.037365233952685
_cell_length_c       7.037365303723749
_cell_angle_alpha    59.99999959030977
_cell_angle_beta     60.00000019523317
_cell_angle_gamma    60.00000022913722

_space_group_name_H-M_alt    "P 1"
_space_group_IT_number       1

loop_
  _space_group_symop_operation_xyz
  'x, y, z'

loop_
  _atom_site_type_symbol
  _atom_site_label
  _atom_site_symmetry_multiplicity
  _atom_site_fract_x
  _atom_site_fract_y
  _atom_site_fract_z
  _atom_site_occupancy
  Ag  Ag1       1.0  0.24999998064870987  0.25000000442006615  0.24999999335349368  1.0000
  Ag  Ag2       1.0  0.7500000129163238  0.7499999627901719  0.7499999982301246  1.0000
  Rh  Rh1       1.0  0.9999999856961828  3.306656950806787e-08  0.9999999323581836  1.0000
  Br  Br1       1.0  0.24836604815002378  0.24836603978369642  0.7516339430750703  1.0000
  Br  Br2       1.0  0.751633971451888  0.7516339674544942  0.2483660396329006  1.0000
  Br  Br3       1.0  0.7516338943614409  0.2483660902688252  0.24836612661671356  1.0000
  Br  Br4       1.0  0.24836606325352475  0.7516339552569717  0.7516339176754491  1.0000
  Br  Br5       1.0  0.24836606723941762  0.7516339440609106  0.24836608066893978  1.0000
  Br  Br6       1.0  0.7516339895552481  0.24836600574586987  0.7516339661558402  1.0000
