data_image0
_chemical_formula_structural       Ag2ReCl6
_chemical_formula_sum              "Ag2 Re1 Cl6"
_cell_length_a       6.780204675775203
_cell_length_b       6.780204831788367
_cell_length_c       6.780204842751499
_cell_angle_alpha    59.99999783049693
_cell_angle_beta     59.99999644157809
_cell_angle_gamma    59.99999778668329

_space_group_name_H-M_alt    "P 1"
_space_group_IT_number       1

loop_
  _space_group_symop_operation_xyz
  'x, y, z'

loop_
  _atom_site_type_symbol
  _atom_site_label
  _atom_site_symmetry_multiplicity
  _atom_site_fract_x
  _atom_site_fract_y
  _atom_site_fract_z
  _atom_site_occupancy
  Ag  Ag1       1.0  0.2499999819609042  0.25000006336451197  0.24999994287944874  1.0000
  Ag  Ag2       1.0  0.7499999726534132  0.7499999769437825  0.7500000132705404  1.0000
  Re  Re1       1.0  7.517609709490779e-09  0.9999999927745831  1.0899514885834233e-07  1.0000
  Cl  Cl1       1.0  0.24509076076917158  0.24509076081043665  0.7549092268529777  1.0000
  Cl  Cl2       1.0  0.754909325823929  0.7549092054373486  0.245090753433614  1.0000
  Cl  Cl3       1.0  0.7549091834612185  0.24509074995603275  0.24509081512670877  1.0000
  Cl  Cl4       1.0  0.24509088302296908  0.7549091693265547  0.7549090836561673  1.0000
  Cl  Cl5       1.0  0.2450907985713878  0.7549092810386302  0.24509079459499125  1.0000
  Cl  Cl6       1.0  0.7549090779595221  0.24509083513652458  0.754909262955227  1.0000
