data_image0
_chemical_formula_structural       Ag2ScCl6
_chemical_formula_sum              "Ag2 Sc1 Cl6"
_cell_length_a       6.787060295176797
_cell_length_b       6.78706017380991
_cell_length_c       6.787060214312442
_cell_angle_alpha    59.999998157060176
_cell_angle_beta     59.99999977613388
_cell_angle_gamma    59.999999436296285

_space_group_name_H-M_alt    "P 1"
_space_group_IT_number       1

loop_
  _space_group_symop_operation_xyz
  'x, y, z'

loop_
  _atom_site_type_symbol
  _atom_site_label
  _atom_site_symmetry_multiplicity
  _atom_site_fract_x
  _atom_site_fract_y
  _atom_site_fract_z
  _atom_site_occupancy
  Ag  Ag1       1.0  0.24999999973267453  0.2500000120993742  0.24999998285936517  1.0000
  Ag  Ag2       1.0  0.7500000364562143  0.7499999857713017  0.7500000008875622  1.0000
  Sc  Sc1       1.0  0.9999999904112578  0.9999999675184715  7.849742249783213e-08  1.0000
  Cl  Cl1       1.0  0.2547850188682949  0.25478507252440374  0.7452149375226167  1.0000
  Cl  Cl2       1.0  0.7452149857678922  0.7452149740685637  0.2547849993313241  1.0000
  Cl  Cl3       1.0  0.7452148928963476  0.2547849991630717  0.2547851189487403  1.0000
  Cl  Cl4       1.0  0.2547851314363769  0.7452149066766102  0.74521489611428  1.0000
  Cl  Cl5       1.0  0.25478508105707764  0.7452149597931276  0.25478507168608533  1.0000
  Cl  Cl6       1.0  0.7452148632070604  0.25478513010854215  0.7452149105343275  1.0000
