data_image0
_chemical_formula_structural       Ag2SnF6
_chemical_formula_sum              "Ag2 Sn1 F6"
_cell_length_a       5.779081173043591
_cell_length_b       5.779081160706941
_cell_length_c       5.779081278742676
_cell_angle_alpha    59.999999039166525
_cell_angle_beta     59.99999818835612
_cell_angle_gamma    59.99999809913202

_space_group_name_H-M_alt    "P 1"
_space_group_IT_number       1

loop_
  _space_group_symop_operation_xyz
  'x, y, z'

loop_
  _atom_site_type_symbol
  _atom_site_label
  _atom_site_symmetry_multiplicity
  _atom_site_fract_x
  _atom_site_fract_y
  _atom_site_fract_z
  _atom_site_occupancy
  Ag  Ag1       1.0  0.2500000049206115  0.2499999198468454  0.24999998818624034  1.0000
  Ag  Ag2       1.0  0.7499999434129826  0.7499999735870789  0.7500000489439719  1.0000
  Sn  Sn1       1.0  1.3986486555698254e-08  0.9999999999999998  0.9999999705118316  1.0000
  F   F1        1.0  0.24473969681107147  0.2447396441629177  0.7552603408143226  1.0000
  F   F2        1.0  0.7552602836508572  0.7552603806659131  0.24473971318586268  1.0000
  F   F3        1.0  0.7552603702000537  0.24473967146376172  0.2447396548291528  1.0000
  F   F4        1.0  0.24473966961873883  0.7552603491265228  0.7552603145093711  1.0000
  F   F5        1.0  0.24473966476973644  0.7552603463300438  0.24473968577892347  1.0000
  F   F6        1.0  0.7552603565816175  0.24473969969151332  0.755260297381472  1.0000
