data_image0
_chemical_formula_structural       Ag2ScI6
_chemical_formula_sum              "Ag2 Sc1 I6"
_cell_length_a       7.894464805202113
_cell_length_b       7.894464742982793
_cell_length_c       7.894464669633824
_cell_angle_alpha    60.00000165045751
_cell_angle_beta     60.00000015161396
_cell_angle_gamma    59.99999951013682

_space_group_name_H-M_alt    "P 1"
_space_group_IT_number       1

loop_
  _space_group_symop_operation_xyz
  'x, y, z'

loop_
  _atom_site_type_symbol
  _atom_site_label
  _atom_site_symmetry_multiplicity
  _atom_site_fract_x
  _atom_site_fract_y
  _atom_site_fract_z
  _atom_site_occupancy
  Ag  Ag1       1.0  0.24999997883240765  0.24999998501769716  0.2500000280825585  1.0000
  Ag  Ag2       1.0  0.7499999984160948  0.7500000062491896  0.7499999998225634  1.0000
  Sc  Sc1       1.0  3.562123876546053e-08  0.999999998448602  0.9999999487639004  1.0000
  I   I1        1.0  0.25481943996168666  0.25481944056803585  0.7451805400320002  1.0000
  I   I2        1.0  0.7451805058913622  0.7451805351848814  0.25481948599362636  1.0000
  I   I3        1.0  0.7451805535239542  0.2548194421340795  0.25481945241506987  1.0000
  I   I4        1.0  0.2548194316868179  0.7451806173942734  0.7451805513119985  1.0000
  I   I5        1.0  0.25481949556016126  0.745180528483831  0.2548194548765235  1.0000
  I   I6        1.0  0.7451805593873607  0.25481945347467294  0.7451805299663073  1.0000
