data_image0
_chemical_formula_structural       Ag2ScBr6
_chemical_formula_sum              "Ag2 Sc1 Br6"
_cell_length_a       7.231709310843424
_cell_length_b       7.23170939051983
_cell_length_c       7.231709337750054
_cell_angle_alpha    60.00000057741791
_cell_angle_beta     60.000000235857655
_cell_angle_gamma    60.00000010968028

_space_group_name_H-M_alt    "P 1"
_space_group_IT_number       1

loop_
  _space_group_symop_operation_xyz
  'x, y, z'

loop_
  _atom_site_type_symbol
  _atom_site_label
  _atom_site_symmetry_multiplicity
  _atom_site_fract_x
  _atom_site_fract_y
  _atom_site_fract_z
  _atom_site_occupancy
  Ag  Ag1       1.0  0.24999994242216741  0.2500000344830311  0.2500000130160208  1.0000
  Ag  Ag2       1.0  0.7499999695211764  0.7500000119959948  0.7500000025848832  1.0000
  Sc  Sc1       1.0  0.99999997098511  0.999999986451393  0.999999985328976  1.0000
  Br  Br1       1.0  0.2545630872028637  0.25456305921523664  0.7454369298218965  1.0000
  Br  Br2       1.0  0.7454369419623268  0.7454369804894851  0.25456303470363345  1.0000
  Br  Br3       1.0  0.7454369644153982  0.25456304114195577  0.2545630838229526  1.0000
  Br  Br4       1.0  0.25456305623490977  0.7454369426747618  0.7454369239664121  1.0000
  Br  Br5       1.0  0.254563110004391  0.7454369245348648  0.2545630568018562  1.0000
  Br  Br6       1.0  0.7454369646770167  0.25456301694245537  0.7454369658836413  1.0000
