data_image0
_chemical_formula_structural       Ag2SiBr6
_chemical_formula_sum              "Ag2 Si1 Br6"
_cell_length_a       6.983007778697318
_cell_length_b       6.9830078059104554
_cell_length_c       6.983007920835139
_cell_angle_alpha    59.99999872282043
_cell_angle_beta     59.99999801341538
_cell_angle_gamma    59.9999982755152

_space_group_name_H-M_alt    "P 1"
_space_group_IT_number       1

loop_
  _space_group_symop_operation_xyz
  'x, y, z'

loop_
  _atom_site_type_symbol
  _atom_site_label
  _atom_site_symmetry_multiplicity
  _atom_site_fract_x
  _atom_site_fract_y
  _atom_site_fract_z
  _atom_site_occupancy
  Ag  Ag1       1.0  0.2500000242898284  0.24999998044193877  0.24999999657272926  1.0000
  Ag  Ag2       1.0  0.7499999658534934  0.7499999746497855  0.7500000093796285  1.0000
  Si  Si1       1.0  3.2853901291292416e-08  4.033953997490039e-08  0.9999999576750883  1.0000
  Br  Br1       1.0  0.2440290735985102  0.24402907617230482  0.7559709312459726  1.0000
  Br  Br2       1.0  0.755970851203816  0.7559708368259865  0.24402916708888658  1.0000
  Br  Br3       1.0  0.755970941618486  0.24402910208999024  0.2440291167449313  1.0000
  Br  Br4       1.0  0.2440291167889857  0.7559708863257013  0.7559708842388915  1.0000
  Br  Br5       1.0  0.2440291124523532  0.7559709494240513  0.24402908842617396  1.0000
  Br  Br6       1.0  0.7559708768368836  0.24402913720965194  0.755970860774522  1.0000
