data_image0
_chemical_formula_structural       Ag2SeI6
_chemical_formula_sum              "Ag2 Se1 I6"
_cell_length_a       7.709437559652586
_cell_length_b       7.709437584588653
_cell_length_c       7.709437699986838
_cell_angle_alpha    59.99999890137573
_cell_angle_beta     59.99999982815226
_cell_angle_gamma    59.999999784899416

_space_group_name_H-M_alt    "P 1"
_space_group_IT_number       1

loop_
  _space_group_symop_operation_xyz
  'x, y, z'

loop_
  _atom_site_type_symbol
  _atom_site_label
  _atom_site_symmetry_multiplicity
  _atom_site_fract_x
  _atom_site_fract_y
  _atom_site_fract_z
  _atom_site_occupancy
  Ag  Ag1       1.0  0.24999999303999987  0.25000001564470964  0.2500000005197558  1.0000
  Ag  Ag2       1.0  0.7499999928881315  0.7500000056297323  0.749999984196725  1.0000
  Se  Se1       1.0  0.9999999949174518  0.9999999523410803  5.2312963353310325e-08  1.0000
  I   I1        1.0  0.26401273065395864  0.2640127441662701  0.7359872661373992  1.0000
  I   I2        1.0  0.7359872743221519  0.7359872469241896  0.26401273971242073  1.0000
  I   I3        1.0  0.735987269116377  0.26401275417409953  0.2640127384907547  1.0000
  I   I4        1.0  0.26401276095849296  0.7359872559799279  0.7359872413865671  1.0000
  I   I5        1.0  0.2640127225106991  0.7359872663307085  0.2640127442452092  1.0000
  I   I6        1.0  0.735987256805932  0.26401276129825607  0.7359872354113144  1.0000
