data_image0
_chemical_formula_structural       Ag2SnF6
_chemical_formula_sum              "Ag2 Sn1 F6"
_cell_length_a       5.778698008537306
_cell_length_b       5.778698109030057
_cell_length_c       5.778698015005489
_cell_angle_alpha    60.00000061771216
_cell_angle_beta     59.999999471812174
_cell_angle_gamma    59.99999993829511

_space_group_name_H-M_alt    "P 1"
_space_group_IT_number       1

loop_
  _space_group_symop_operation_xyz
  'x, y, z'

loop_
  _atom_site_type_symbol
  _atom_site_label
  _atom_site_symmetry_multiplicity
  _atom_site_fract_x
  _atom_site_fract_y
  _atom_site_fract_z
  _atom_site_occupancy
  Ag  Ag1       1.0  0.25000002820816286  0.25000000164322356  0.24999999857257516  1.0000
  Ag  Ag2       1.0  0.7499999735528635  0.749999996452019  0.7500000416484153  1.0000
  Sn  Sn1       1.0  0.999999999293529  2.1194131060715115e-09  0.9999999906410609  1.0000
  F   F1        1.0  0.2447345916069548  0.24473462846066912  0.7552653987215064  1.0000
  F   F2        1.0  0.7552654086199183  0.7552653802316389  0.24473461447161093  1.0000
  F   F3        1.0  0.7552653710301492  0.244734594785326  0.24473464822780852  1.0000
  F   F4        1.0  0.24473465955418308  0.7552653588022405  0.755265301197231  1.0000
  F   F5        1.0  0.24473466325657187  0.7552653552753302  0.2447346413762374  1.0000
  F   F6        1.0  0.7552653190868992  0.24473468308876167  0.7552652915114643  1.0000
