data_image0
_chemical_formula_structural       Ag2SBr6
_chemical_formula_sum              "Ag2 S1 Br6"
_cell_length_a       7.025499210090873
_cell_length_b       7.025499412685757
_cell_length_c       7.025499406540706
_cell_angle_alpha    60.00000062717482
_cell_angle_beta     60.000001189097674
_cell_angle_gamma    60.00000002180555

_space_group_name_H-M_alt    "P 1"
_space_group_IT_number       1

loop_
  _space_group_symop_operation_xyz
  'x, y, z'

loop_
  _atom_site_type_symbol
  _atom_site_label
  _atom_site_symmetry_multiplicity
  _atom_site_fract_x
  _atom_site_fract_y
  _atom_site_fract_z
  _atom_site_occupancy
  Ag  Ag1       1.0  0.25000005362850564  0.24999993556815606  0.2500000000970691  1.0000
  Ag  Ag2       1.0  0.7499999745421659  0.7500000403046774  0.7499999268442537  1.0000
  S   S1        1.0  3.449817996545195e-08  2.9635846784202573e-08  0.9999999850136236  1.0000
  Br  Br1       1.0  0.25496528727826995  0.2549652886161679  0.7450347433925086  1.0000
  Br  Br2       1.0  0.7450347080207033  0.7450346872566658  0.25496530389186656  1.0000
  Br  Br3       1.0  0.7450346715610783  0.25496528528335455  0.2549653336222432  1.0000
  Br  Br4       1.0  0.25496529914960697  0.7450347446313186  0.7450346519636062  1.0000
  Br  Br5       1.0  0.254965296647883  0.7450347208167404  0.2549652763471171  1.0000
  Br  Br6       1.0  0.74503467979116  0.25496526725908936  0.7450347799592703  1.0000
