data_image0
_chemical_formula_structural       Ag2SeCl6
_chemical_formula_sum              "Ag2 Se1 Cl6"
_cell_length_a       6.764637797379643
_cell_length_b       6.764637934240979
_cell_length_c       6.764637730104815
_cell_angle_alpha    60.00000056205621
_cell_angle_beta     59.999999425969705
_cell_angle_gamma    60.00000045247536

_space_group_name_H-M_alt    "P 1"
_space_group_IT_number       1

loop_
  _space_group_symop_operation_xyz
  'x, y, z'

loop_
  _atom_site_type_symbol
  _atom_site_label
  _atom_site_symmetry_multiplicity
  _atom_site_fract_x
  _atom_site_fract_y
  _atom_site_fract_z
  _atom_site_occupancy
  Ag  Ag1       1.0  0.24999996257650103  0.25000003904261553  0.25000001956571877  1.0000
  Ag  Ag2       1.0  0.749999994218183  0.750000022981296  0.7499999948733364  1.0000
  Se  Se1       1.0  3.117509492856601e-08  0.9999999167165131  0.9999999210966168  1.0000
  Cl  Cl1       1.0  0.25076971760876515  0.25076968451592546  0.7492303022972229  1.0000
  Cl  Cl2       1.0  0.7492302684291925  0.7492303358662428  0.2507697094714124  1.0000
  Cl  Cl3       1.0  0.7492303175546225  0.25076967003228995  0.2507696693353943  1.0000
  Cl  Cl4       1.0  0.25076963101586675  0.7492303756970262  0.7492303632761591  1.0000
  Cl  Cl5       1.0  0.25076975716603345  0.7492302515356872  0.2507696901020752  1.0000
  Cl  Cl6       1.0  0.7492303303254854  0.25076970004707844  0.7492303452529259  1.0000
