data_image0
_chemical_formula_structural       Ag2SnCl6
_chemical_formula_sum              "Ag2 Sn1 Cl6"
_cell_length_a       6.847149331568941
_cell_length_b       6.847149565927298
_cell_length_c       6.847149370961289
_cell_angle_alpha    60.00000044071567
_cell_angle_beta     59.99999959751776
_cell_angle_gamma    60.000000673758954

_space_group_name_H-M_alt    "P 1"
_space_group_IT_number       1

loop_
  _space_group_symop_operation_xyz
  'x, y, z'

loop_
  _atom_site_type_symbol
  _atom_site_label
  _atom_site_symmetry_multiplicity
  _atom_site_fract_x
  _atom_site_fract_y
  _atom_site_fract_z
  _atom_site_occupancy
  Ag  Ag1       1.0  0.24999999310588117  0.2500000035390344  0.2500000024502173  1.0000
  Ag  Ag2       1.0  0.7499999976634059  0.7500000213492611  0.7499999825884591  1.0000
  Sn  Sn1       1.0  0.9999999761858617  1.0732157983901666e-08  2.990837877132261e-08  1.0000
  Cl  Cl1       1.0  0.2520637275454193  0.2520637629013747  0.7479362488958773  1.0000
  Cl  Cl2       1.0  0.747936274245366  0.7479362440999907  0.25206373811505317  1.0000
  Cl  Cl3       1.0  0.7479362408106744  0.2520637352356995  0.2520637827906523  1.0000
  Cl  Cl4       1.0  0.25206376813488285  0.7479362503013497  0.7479361982308942  1.0000
  Cl  Cl5       1.0  0.25206379290109987  0.7479362348342588  0.25206377338855795  1.0000
  Cl  Cl6       1.0  0.7479362326190778  0.25206373639324614  0.7479362430119952  1.0000
