data_image0
_chemical_formula_structural       Ag2SI6
_chemical_formula_sum              "Ag2 S1 I6"
_cell_length_a       7.560956262130501
_cell_length_b       7.5609561204852165
_cell_length_c       7.560956232101166
_cell_angle_alpha    60.000000059324655
_cell_angle_beta     60.00000043723978
_cell_angle_gamma    60.00000072182773

_space_group_name_H-M_alt    "P 1"
_space_group_IT_number       1

loop_
  _space_group_symop_operation_xyz
  'x, y, z'

loop_
  _atom_site_type_symbol
  _atom_site_label
  _atom_site_symmetry_multiplicity
  _atom_site_fract_x
  _atom_site_fract_y
  _atom_site_fract_z
  _atom_site_occupancy
  Ag  Ag1       1.0  0.2500000100507465  0.24999998779129054  0.25000000189134347  1.0000
  Ag  Ag2       1.0  0.7499999998387051  0.750000031406649  0.7500000066531698  1.0000
  S   S1        1.0  3.5742022821757614e-08  2.1057764882954354e-08  0.9999999808581945  1.0000
  I   I1        1.0  0.26641987548478513  0.2664198908564562  0.7335801262055043  1.0000
  I   I2        1.0  0.7335801125158737  0.7335800748871577  0.2664198776878789  1.0000
  I   I3        1.0  0.7335800854067035  0.26641991241499835  0.2664199026560167  1.0000
  I   I4        1.0  0.2664198894500525  0.7335801019234565  0.7335800940925697  1.0000
  I   I5        1.0  0.26641989985790776  0.7335800801251645  0.2664199190419171  1.0000
  I   I6        1.0  0.7335800934336439  0.2664199018167299  0.7335800846875516  1.0000
