data_image0
_chemical_formula_structural       Ag2SeBr6
_chemical_formula_sum              "Ag2 Se1 Br6"
_cell_length_a       7.21493353665424
_cell_length_b       7.214933642476336
_cell_length_c       7.214933680363642
_cell_angle_alpha    59.999999917577064
_cell_angle_beta     59.99999974787591
_cell_angle_gamma    60.00000064918329

_space_group_name_H-M_alt    "P 1"
_space_group_IT_number       1

loop_
  _space_group_symop_operation_xyz
  'x, y, z'

loop_
  _atom_site_type_symbol
  _atom_site_label
  _atom_site_symmetry_multiplicity
  _atom_site_fract_x
  _atom_site_fract_y
  _atom_site_fract_z
  _atom_site_occupancy
  Ag  Ag1       1.0  0.2500000216196734  0.24999998124335945  0.25000001057241045  1.0000
  Ag  Ag2       1.0  0.7499999797116018  0.7500000167231667  0.7500000142321561  1.0000
  Se  Se1       1.0  0.999999972307256  2.546270530746162e-08  0.9999999692366943  1.0000
  Br  Br1       1.0  0.2536457036537483  0.2536456615800705  0.7463543238314829  1.0000
  Br  Br2       1.0  0.7463543064396859  0.7463543245038601  0.2536456872871464  1.0000
  Br  Br3       1.0  0.7463542759907206  0.25364568990239755  0.25364570233748135  1.0000
  Br  Br4       1.0  0.25364570094575556  0.7463543284342932  0.7463543064612188  1.0000
  Br  Br5       1.0  0.25364572003765806  0.7463543083115847  0.253645669934676  1.0000
  Br  Br6       1.0  0.7463543180231106  0.2536456658897501  0.746354319281443  1.0000
