data_image0
_chemical_formula_structural       Ag2SnBr6
_chemical_formula_sum              "Ag2 Sn1 Br6"
_cell_length_a       7.184799558677497
_cell_length_b       7.1847995791871675
_cell_length_c       7.184799557179997
_cell_angle_alpha    60.00000018957054
_cell_angle_beta     59.999998639303065
_cell_angle_gamma    59.99999987337296

_space_group_name_H-M_alt    "P 1"
_space_group_IT_number       1

loop_
  _space_group_symop_operation_xyz
  'x, y, z'

loop_
  _atom_site_type_symbol
  _atom_site_label
  _atom_site_symmetry_multiplicity
  _atom_site_fract_x
  _atom_site_fract_y
  _atom_site_fract_z
  _atom_site_occupancy
  Ag  Ag1       1.0  0.24999999882776744  0.2500000253437401  0.24999997038323235  1.0000
  Ag  Ag2       1.0  0.7500000077834855  0.7499999890949224  0.7500000853668274  1.0000
  Sn  Sn1       1.0  5.269596295824494e-08  0.9999999335193014  6.256545831278829e-08  1.0000
  Br  Br1       1.0  0.25597916094916434  0.2559791746418403  0.744020832905676  1.0000
  Br  Br2       1.0  0.7440208542187097  0.7440207562697896  0.25597914480792544  1.0000
  Br  Br3       1.0  0.7440208804896978  0.2559791660866389  0.2559791912674283  1.0000
  Br  Br4       1.0  0.2559791421122294  0.7440208244871572  0.7440208405831815  1.0000
  Br  Br5       1.0  0.25597915870420246  0.7440208623880306  0.2559791481387553  1.0000
  Br  Br6       1.0  0.7440207402590076  0.25597926285179595  0.7440207264890265  1.0000
