data_image0
_chemical_formula_structural       Ag2SnBr6
_chemical_formula_sum              "Ag2 Sn1 Br6"
_cell_length_a       7.189797143864831
_cell_length_b       7.189797115798399
_cell_length_c       7.189797234410064
_cell_angle_alpha    59.999999562692174
_cell_angle_beta     59.99999933858085
_cell_angle_gamma    60.00000014128634

_space_group_name_H-M_alt    "P 1"
_space_group_IT_number       1

loop_
  _space_group_symop_operation_xyz
  'x, y, z'

loop_
  _atom_site_type_symbol
  _atom_site_label
  _atom_site_symmetry_multiplicity
  _atom_site_fract_x
  _atom_site_fract_y
  _atom_site_fract_z
  _atom_site_occupancy
  Ag  Ag1       1.0  0.25000000394758404  0.2499999912050482  0.2500000025546925  1.0000
  Ag  Ag2       1.0  0.7500000066182705  0.7500000230151495  0.7499999215967649  1.0000
  Sn  Sn1       1.0  5.567654417914849e-08  0.9999999437862016  4.477614080494606e-08  1.0000
  Br  Br1       1.0  0.25584244838764747  0.2558424082631555  0.7441575874877828  1.0000
  Br  Br2       1.0  0.7441575521857896  0.7441575684811763  0.255842428549947  1.0000
  Br  Br3       1.0  0.7441575536405648  0.25584241921459416  0.2558424225347964  1.0000
  Br  Br4       1.0  0.2558423919215656  0.7441576069297425  0.7441576616789952  1.0000
  Br  Br5       1.0  0.2558424721249235  0.744157524112303  0.25584242605598156  1.0000
  Br  Br6       1.0  0.7441575154694496  0.25584251565962135  0.7441575009779329  1.0000
