data_image0
_chemical_formula_structural       Ag2SF6
_chemical_formula_sum              "Ag2 S1 F6"
_cell_length_a       5.619458232734896
_cell_length_b       5.619458097502439
_cell_length_c       5.619458103166521
_cell_angle_alpha    60.000001437384384
_cell_angle_beta     60.00000045037571
_cell_angle_gamma    60.00000002070819

_space_group_name_H-M_alt    "P 1"
_space_group_IT_number       1

loop_
  _space_group_symop_operation_xyz
  'x, y, z'

loop_
  _atom_site_type_symbol
  _atom_site_label
  _atom_site_symmetry_multiplicity
  _atom_site_fract_x
  _atom_site_fract_y
  _atom_site_fract_z
  _atom_site_occupancy
  Ag  Ag1       1.0  0.25000002895622025  0.24999996780848707  0.24999998750873498  1.0000
  Ag  Ag2       1.0  0.7499999409118993  0.7500000145785092  0.7500001258496064  1.0000
  S   S1        1.0  3.8938422340795365e-08  0.999999969487399  0.9999999762122477  1.0000
  F   F1        1.0  0.23148209434029143  0.23148207571164744  0.7685179039803209  1.0000
  F   F2        1.0  0.7685178560586182  0.7685179219316465  0.2314820655629332  1.0000
  F   F3        1.0  0.7685179159180595  0.23148209914737722  0.23148205511452608  1.0000
  F   F4        1.0  0.23148203950212476  0.768517994392662  0.7685179102375258  1.0000
  F   F5        1.0  0.2314821400320463  0.7685179259593387  0.2314820173135773  1.0000
  F   F6        1.0  0.768517949265238  0.23148204335082612  0.7685179289786119  1.0000
