data_image0
_chemical_formula_structural       Ag2SiCl6
_chemical_formula_sum              "Ag2 Si1 Cl6"
_cell_length_a       6.617744592220518
_cell_length_b       6.617744004403397
_cell_length_c       6.617744725934666
_cell_angle_alpha    59.99999728293901
_cell_angle_beta     59.99999904215309
_cell_angle_gamma    60.00000110195679

_space_group_name_H-M_alt    "P 1"
_space_group_IT_number       1

loop_
  _space_group_symop_operation_xyz
  'x, y, z'

loop_
  _atom_site_type_symbol
  _atom_site_label
  _atom_site_symmetry_multiplicity
  _atom_site_fract_x
  _atom_site_fract_y
  _atom_site_fract_z
  _atom_site_occupancy
  Ag  Ag1       1.0  0.25000001782390907  0.2500000293636092  0.24999998464721868  1.0000
  Ag  Ag2       1.0  0.7499999937777604  0.7500000159135828  0.7500000440546825  1.0000
  Si  Si1       1.0  4.9844851441915766e-08  0.9999998871073907  0.9999998517043097  1.0000
  Cl  Cl1       1.0  0.23615985350484386  0.23615989450928476  0.7638401412781926  1.0000
  Cl  Cl2       1.0  0.7638401610573202  0.7638401785283848  0.23615984788580177  1.0000
  Cl  Cl3       1.0  0.7638400449538708  0.23615989196248355  0.2361599502460628  1.0000
  Cl  Cl4       1.0  0.23615986844301715  0.763840118151432  0.7638401526953111  1.0000
  Cl  Cl5       1.0  0.23615985344141657  0.7638401677736122  0.23615989768791196  1.0000
  Cl  Cl6       1.0  0.7638401388096395  0.23615979422214547  0.7638401777967461  1.0000
