data_image0
_chemical_formula_structural       Ag2SiI6
_chemical_formula_sum              "Ag2 Si1 I6"
_cell_length_a       7.60512315695902
_cell_length_b       7.605123329211371
_cell_length_c       7.605123367334807
_cell_angle_alpha    59.99999940044829
_cell_angle_beta     59.9999993122928
_cell_angle_gamma    60.0000000522039

_space_group_name_H-M_alt    "P 1"
_space_group_IT_number       1

loop_
  _space_group_symop_operation_xyz
  'x, y, z'

loop_
  _atom_site_type_symbol
  _atom_site_label
  _atom_site_symmetry_multiplicity
  _atom_site_fract_x
  _atom_site_fract_y
  _atom_site_fract_z
  _atom_site_occupancy
  Ag  Ag1       1.0  0.25000001206257977  0.25000003365756074  0.249999990731724  1.0000
  Ag  Ag2       1.0  0.7499999837386785  0.7499999850223854  0.7499999906496981  1.0000
  Si  Si1       1.0  0.9999999985737822  0.9999999951687376  1.1018158511607732e-08  1.0000
  I   I1        1.0  0.24896050603059644  0.24896052991292394  0.751039487250009  1.0000
  I   I2        1.0  0.7510394877155356  0.751039490377443  0.24896052328163298  1.0000
  I   I3        1.0  0.7510395089982937  0.24896050773012032  0.24896050003107453  1.0000
  I   I4        1.0  0.2489604954076774  0.7510394578059396  0.7510394996752252  1.0000
  I   I5        1.0  0.24896051132637784  0.7510394703684585  0.24896053476295305  1.0000
  I   I6        1.0  0.7510394975266479  0.24896052737601723  0.7510394663391574  1.0000
