data_image0
_chemical_formula_structural       Ag2SeBr6
_chemical_formula_sum              "Ag2 Se1 Br6"
_cell_length_a       7.217148938917677
_cell_length_b       7.217148978350875
_cell_length_c       7.217148964951503
_cell_angle_alpha    59.999999931775506
_cell_angle_beta     59.99999911720553
_cell_angle_gamma    59.99999883415292

_space_group_name_H-M_alt    "P 1"
_space_group_IT_number       1

loop_
  _space_group_symop_operation_xyz
  'x, y, z'

loop_
  _atom_site_type_symbol
  _atom_site_label
  _atom_site_symmetry_multiplicity
  _atom_site_fract_x
  _atom_site_fract_y
  _atom_site_fract_z
  _atom_site_occupancy
  Ag  Ag1       1.0  0.24999996719496287  0.24999991421352896  0.2500000683500089  1.0000
  Ag  Ag2       1.0  0.7499999756616781  0.7500000531902403  0.7499999489997248  1.0000
  Se  Se1       1.0  2.7004874802056565e-08  1.0181955635470296e-08  3.821572101973351e-08  1.0000
  Br  Br1       1.0  0.2535376219102495  0.25353754720641053  0.7464624379848965  1.0000
  Br  Br2       1.0  0.746462399537558  0.746462410015402  0.2535376241387872  1.0000
  Br  Br3       1.0  0.7464624443261405  0.25353755442666565  0.25353753373163584  1.0000
  Br  Br4       1.0  0.2535375989551638  0.7464624044921391  0.7464624445761912  1.0000
  Br  Br5       1.0  0.2535375407430309  0.7464624513102867  0.2535375422137444  1.0000
  Br  Br6       1.0  0.7464624212296318  0.2535376603378572  0.7464623629728393  1.0000
