data_image0
_chemical_formula_structural       Ag2TeCl6
_chemical_formula_sum              "Ag2 Te1 Cl6"
_cell_length_a       6.936324823545925
_cell_length_b       6.936324917206015
_cell_length_c       6.936324972276246
_cell_angle_alpha    59.99999878173146
_cell_angle_beta     59.99999993841257
_cell_angle_gamma    60.00000019006895

_space_group_name_H-M_alt    "P 1"
_space_group_IT_number       1

loop_
  _space_group_symop_operation_xyz
  'x, y, z'

loop_
  _atom_site_type_symbol
  _atom_site_label
  _atom_site_symmetry_multiplicity
  _atom_site_fract_x
  _atom_site_fract_y
  _atom_site_fract_z
  _atom_site_occupancy
  Ag  Ag1       1.0  0.25000001107657666  0.2500000654972296  0.2499999732215677  1.0000
  Ag  Ag2       1.0  0.7499999545698335  0.7500000728928915  0.749999973218425  1.0000
  Te  Te1       1.0  0.9999998716496161  0.9999999505604812  1.5368984235031726e-08  1.0000
  Cl  Cl1       1.0  0.253336526890603  0.25333651306813726  0.7466634762195563  1.0000
  Cl  Cl2       1.0  0.7466635358835003  0.7466634787691248  0.2533364906079639  1.0000
  Cl  Cl3       1.0  0.7466634295257711  0.2533365672958  0.25333655712064196  1.0000
  Cl  Cl4       1.0  0.2533365834915145  0.7466634439641293  0.7466634537076654  1.0000
  Cl  Cl5       1.0  0.2533365526294063  0.7466634469845521  0.2533365454215936  1.0000
  Cl  Cl6       1.0  0.746663539572982  0.25333645656785386  0.7466635142683801  1.0000
