data_image0
_chemical_formula_structural       Ag2TiBr6
_chemical_formula_sum              "Ag2 Ti1 Br6"
_cell_length_a       7.1322368831905925
_cell_length_b       7.132236836157633
_cell_length_c       7.1322367312249755
_cell_angle_alpha    60.00000127176878
_cell_angle_beta     60.00000069725133
_cell_angle_gamma    59.99999894337324

_space_group_name_H-M_alt    "P 1"
_space_group_IT_number       1

loop_
  _space_group_symop_operation_xyz
  'x, y, z'

loop_
  _atom_site_type_symbol
  _atom_site_label
  _atom_site_symmetry_multiplicity
  _atom_site_fract_x
  _atom_site_fract_y
  _atom_site_fract_z
  _atom_site_occupancy
  Ag  Ag1       1.0  0.24999998101585683  0.2500000018912889  0.24999998819724467  1.0000
  Ag  Ag2       1.0  0.7500000102762483  0.7500000176942379  0.7499999642255814  1.0000
  Ti  Ti1       1.0  0.999999989273185  0.9999999398981373  0.9999997451828055  1.0000
  Br  Br1       1.0  0.24784150598897903  0.24784137252615937  0.7521585550165775  1.0000
  Br  Br2       1.0  0.7521586516828996  0.7521586384733846  0.24784136057189396  1.0000
  Br  Br3       1.0  0.7521584857495176  0.24784142752839639  0.24784147532440073  1.0000
  Br  Br4       1.0  0.24784129897984525  0.7521587551907575  0.7521587497861453  1.0000
  Br  Br5       1.0  0.2478414172857179  0.7521585703823505  0.2478413934795603  1.0000
  Br  Br6       1.0  0.7521586497257309  0.24784127061479147  0.7521587786279493  1.0000
