data_image0
_chemical_formula_structural       Ag2TeBr6
_chemical_formula_sum              "Ag2 Te1 Br6"
_cell_length_a       7.364370141883142
_cell_length_b       7.364370017916616
_cell_length_c       7.36436995368878
_cell_angle_alpha    60.00000086829387
_cell_angle_beta     60.00000133294011
_cell_angle_gamma    59.99999839473331

_space_group_name_H-M_alt    "P 1"
_space_group_IT_number       1

loop_
  _space_group_symop_operation_xyz
  'x, y, z'

loop_
  _atom_site_type_symbol
  _atom_site_label
  _atom_site_symmetry_multiplicity
  _atom_site_fract_x
  _atom_site_fract_y
  _atom_site_fract_z
  _atom_site_occupancy
  Ag  Ag1       1.0  0.24999999058817904  0.25000003450905545  0.24999997903346127  1.0000
  Ag  Ag2       1.0  0.7500000100151057  0.7499999887754679  0.7500000201612991  1.0000
  Te  Te1       1.0  9.994730485549432e-09  0.9999999417926193  5.428200809864853e-07  1.0000
  Br  Br1       1.0  0.25838606379755824  0.25838604086569017  0.7416139628307196  1.0000
  Br  Br2       1.0  0.7416140143801314  0.7416139707773547  0.2583859911765728  1.0000
  Br  Br3       1.0  0.7416141355358272  0.2583858176494937  0.258385917052745  1.0000
  Br  Br4       1.0  0.258386059752258  0.7416139179242455  0.7416138706560179  1.0000
  Br  Br5       1.0  0.25838584813967874  0.7416142116646273  0.25838583556426703  1.0000
  Br  Br6       1.0  0.741613865744987  0.25838607438465816  0.7416138863769766  1.0000
