data_image0
_chemical_formula_structural       Ag2TaF6
_chemical_formula_sum              "Ag2 Ta1 F6"
_cell_length_a       6.006949574256131
_cell_length_b       6.006950082335698
_cell_length_c       6.006950261643257
_cell_angle_alpha    59.99999838929843
_cell_angle_beta     59.99999817568916
_cell_angle_gamma    59.99999804282576

_space_group_name_H-M_alt    "P 1"
_space_group_IT_number       1

loop_
  _space_group_symop_operation_xyz
  'x, y, z'

loop_
  _atom_site_type_symbol
  _atom_site_label
  _atom_site_symmetry_multiplicity
  _atom_site_fract_x
  _atom_site_fract_y
  _atom_site_fract_z
  _atom_site_occupancy
  Ag  Ag1       1.0  0.2499998869471761  0.2500000202420106  0.25000002382515113  1.0000
  Ag  Ag2       1.0  0.7500000484047564  0.749999964898672  0.7500000454686809  1.0000
  Ta  Ta1       1.0  9.261555069901474e-09  1.83499179987183e-08  0.9999999528994981  1.0000
  F   F1        1.0  0.22903032337380946  0.22903030861114626  0.7709697359916994  1.0000
  F   F2        1.0  0.7709696490043408  0.770969784590162  0.22903027407661752  1.0000
  F   F3        1.0  0.7709697757446494  0.2290302905751538  0.22903023368289704  1.0000
  F   F4        1.0  0.22903023577862278  0.7709697659263178  0.7709697834864693  1.0000
  F   F5        1.0  0.22903027936632395  0.7709697126050081  0.22903025028400892  1.0000
  F   F6        1.0  0.7709697802738278  0.22903023991359514  0.770969789824138  1.0000
