data_image0
_chemical_formula_structural       Ag2TaCl6
_chemical_formula_sum              "Ag2 Ta1 Cl6"
_cell_length_a       6.813916807408441
_cell_length_b       6.813917023659027
_cell_length_c       6.813917090012108
_cell_angle_alpha    59.99999848273445
_cell_angle_beta     60.000003608871324
_cell_angle_gamma    59.9999994005004

_space_group_name_H-M_alt    "P 1"
_space_group_IT_number       1

loop_
  _space_group_symop_operation_xyz
  'x, y, z'

loop_
  _atom_site_type_symbol
  _atom_site_label
  _atom_site_symmetry_multiplicity
  _atom_site_fract_x
  _atom_site_fract_y
  _atom_site_fract_z
  _atom_site_occupancy
  Ag  Ag1       1.0  0.2499999550883742  0.2500001503323142  0.24999989647176918  1.0000
  Ag  Ag2       1.0  0.7499999967849514  0.7500000411859044  0.749999979722138  1.0000
  Ta  Ta1       1.0  0.9999999873651637  1.294140131519068e-07  0.9999998506201628  1.0000
  Cl  Cl1       1.0  0.2459958364647572  0.245995919129096  0.7540040881469638  1.0000
  Cl  Cl2       1.0  0.754003868889883  0.7540039290825151  0.24599608736233752  1.0000
  Cl  Cl3       1.0  0.7540039905894609  0.24599605658700704  0.24599596683972794  1.0000
  Cl  Cl4       1.0  0.24599605329275695  0.7540039605817813  0.7540039167700067  1.0000
  Cl  Cl5       1.0  0.24599595418588435  0.7540040543147752  0.24599603144287507  1.0000
  Cl  Cl6       1.0  0.7540043465122883  0.24599573637948038  0.7540042185681644  1.0000
