data_image0
_chemical_formula_structural       Ag2TiCl6
_chemical_formula_sum              "Ag2 Ti1 Cl6"
_cell_length_a       6.677046133328755
_cell_length_b       6.6770461560240815
_cell_length_c       6.677045869787726
_cell_angle_alpha    60.0000009773144
_cell_angle_beta     60.000001142474616
_cell_angle_gamma    60.00000092536996

_space_group_name_H-M_alt    "P 1"
_space_group_IT_number       1

loop_
  _space_group_symop_operation_xyz
  'x, y, z'

loop_
  _atom_site_type_symbol
  _atom_site_label
  _atom_site_symmetry_multiplicity
  _atom_site_fract_x
  _atom_site_fract_y
  _atom_site_fract_z
  _atom_site_occupancy
  Ag  Ag1       1.0  0.24999998144614866  0.24999999578628748  0.2500000035190943  1.0000
  Ag  Ag2       1.0  0.7500000297933269  0.7499999800218167  0.7500000059447364  1.0000
  Ti  Ti1       1.0  2.1171912399671078e-08  0.9999999779888624  0.9999999689685781  1.0000
  Cl  Cl1       1.0  0.24751472827719742  0.24751475270804496  0.7524852494234279  1.0000
  Cl  Cl2       1.0  0.7524852618772704  0.7524852707908577  0.24751472427248256  1.0000
  Cl  Cl3       1.0  0.7524852022155776  0.24751473105667027  0.24751475853342006  1.0000
  Cl  Cl4       1.0  0.24751474287067105  0.7524852979450167  0.7524852873635989  1.0000
  Cl  Cl5       1.0  0.24751480850549493  0.7524852487975163  0.2475146685006047  1.0000
  Cl  Cl6       1.0  0.7524852277482251  0.24751474535320273  0.7524853267731378  1.0000
