data_image0
_chemical_formula_structural       Ag2TiBr6
_chemical_formula_sum              "Ag2 Ti1 Br6"
_cell_length_a       7.129178972747005
_cell_length_b       7.129178951052306
_cell_length_c       7.129179107943393
_cell_angle_alpha    59.99999996241995
_cell_angle_beta     59.99999928198747
_cell_angle_gamma    59.99999959098897

_space_group_name_H-M_alt    "P 1"
_space_group_IT_number       1

loop_
  _space_group_symop_operation_xyz
  'x, y, z'

loop_
  _atom_site_type_symbol
  _atom_site_label
  _atom_site_symmetry_multiplicity
  _atom_site_fract_x
  _atom_site_fract_y
  _atom_site_fract_z
  _atom_site_occupancy
  Ag  Ag1       1.0  0.24999994510769008  0.24999995045875872  0.25000007243034694  1.0000
  Ag  Ag2       1.0  0.7500000055187913  0.7499999578880943  0.7499999681250747  1.0000
  Ti  Ti1       1.0  0.999999985111251  4.46662466710992e-08  0.9999999598629027  1.0000
  Br  Br1       1.0  0.24796084141723776  0.24796090258572034  0.7520391448403744  1.0000
  Br  Br2       1.0  0.752039135253233  0.7520391122729526  0.24796088694727053  1.0000
  Br  Br3       1.0  0.7520391343753534  0.24796089755039283  0.2479607919802811  1.0000
  Br  Br4       1.0  0.24796086323588126  0.752039151666931  0.7520391644663313  1.0000
  Br  Br5       1.0  0.24796089280031308  0.7520391372413758  0.24796079730063783  1.0000
  Br  Br6       1.0  0.7520391938289156  0.2479608587200386  0.752039211399234  1.0000
