data_image0
_chemical_formula_structural       Ag2TiI6
_chemical_formula_sum              "Ag2 Ti1 I6"
_cell_length_a       7.777155969654085
_cell_length_b       7.77715599469242
_cell_length_c       7.777156095856132
_cell_angle_alpha    59.99999964356927
_cell_angle_beta     59.99999960784859
_cell_angle_gamma    59.999999757768634

_space_group_name_H-M_alt    "P 1"
_space_group_IT_number       1

loop_
  _space_group_symop_operation_xyz
  'x, y, z'

loop_
  _atom_site_type_symbol
  _atom_site_label
  _atom_site_symmetry_multiplicity
  _atom_site_fract_x
  _atom_site_fract_y
  _atom_site_fract_z
  _atom_site_occupancy
  Ag  Ag1       1.0  0.24999998164149403  0.25000001347080786  0.2499999632627729  1.0000
  Ag  Ag2       1.0  0.7499999655460778  0.7500000230896472  0.750000055295127  1.0000
  Ti  Ti1       1.0  2.6575982982226675e-08  0.9999999559056594  0.9999999804712034  1.0000
  I   I1        1.0  0.24717270812110842  0.24717266875220933  0.752827318933423  1.0000
  I   I2        1.0  0.7528273038106538  0.7528273205643091  0.24717263044094792  1.0000
  I   I3        1.0  0.7528273503952976  0.24717266523155423  0.2471727203473746  1.0000
  I   I4        1.0  0.24717265700765217  0.7528273020377939  0.7528273413229017  1.0000
  I   I5        1.0  0.24717268466337505  0.7528273727566664  0.24717268246467733  1.0000
  I   I6        1.0  0.7528273236530181  0.24717267640217147  0.7528273159452423  1.0000
