data_image0
_chemical_formula_structural       Ag2TiI6
_chemical_formula_sum              "Ag2 Ti1 I6"
_cell_length_a       7.772780292133448
_cell_length_b       7.772780103614921
_cell_length_c       7.772780032519942
_cell_angle_alpha    60.000001368562856
_cell_angle_beta     59.999998545049586
_cell_angle_gamma    59.99999821323169

_space_group_name_H-M_alt    "P 1"
_space_group_IT_number       1

loop_
  _space_group_symop_operation_xyz
  'x, y, z'

loop_
  _atom_site_type_symbol
  _atom_site_label
  _atom_site_symmetry_multiplicity
  _atom_site_fract_x
  _atom_site_fract_y
  _atom_site_fract_z
  _atom_site_occupancy
  Ag  Ag1       1.0  0.25000007728251394  0.24999993219669303  0.25000005467312264  1.0000
  Ag  Ag2       1.0  0.7499999841435078  0.7500000360941138  0.7499999584131953  1.0000
  Ti  Ti1       1.0  1.9857201336420652e-07  0.9999999480024097  0.9999999331454891  1.0000
  I   I1        1.0  0.24734068570679543  0.24734067153988967  0.7526593208331527  1.0000
  I   I2        1.0  0.7526591846678309  0.7526591880286954  0.24734084857268185  1.0000
  I   I3        1.0  0.752659318113747  0.24734071702625388  0.24734066980395922  1.0000
  I   I4        1.0  0.24734060968301333  0.7526594293168972  0.752659336509313  1.0000
  I   I5        1.0  0.247340706695773  0.7526592576027018  0.2473406856214482  1.0000
  I   I6        1.0  0.7526592469118266  0.2473408335914901  0.7526591719701797  1.0000
