data_image0
_chemical_formula_structural       Ag2TaBr6
_chemical_formula_sum              "Ag2 Ta1 Br6"
_cell_length_a       7.225371329848954
_cell_length_b       7.225370969188336
_cell_length_c       7.225370952005292
_cell_angle_alpha    60.00000261557149
_cell_angle_beta     59.999999760486254
_cell_angle_gamma    59.9999971962438

_space_group_name_H-M_alt    "P 1"
_space_group_IT_number       1

loop_
  _space_group_symop_operation_xyz
  'x, y, z'

loop_
  _atom_site_type_symbol
  _atom_site_label
  _atom_site_symmetry_multiplicity
  _atom_site_fract_x
  _atom_site_fract_y
  _atom_site_fract_z
  _atom_site_occupancy
  Ag  Ag1       1.0  0.24999993517647004  0.25000001738438327  0.2500000710174605  1.0000
  Ag  Ag2       1.0  0.7499999930910285  0.7500000216420319  0.7500000473343731  1.0000
  Ta  Ta1       1.0  2.3264968772875045e-07  0.9999998677851877  0.999999887502017  1.0000
  Br  Br1       1.0  0.24736943186719007  0.24736937801604267  0.7526305723136136  1.0000
  Br  Br2       1.0  0.7526305615687046  0.7526306237190095  0.24736935494616763  1.0000
  Br  Br3       1.0  0.752630669623477  0.24736928417076523  0.24736926673064288  1.0000
  Br  Br4       1.0  0.24736912575633227  0.7526308514741622  0.7526308254673998  1.0000
  Br  Br5       1.0  0.24736935380415195  0.7526306145203584  0.24736934033737415  1.0000
  Br  Br6       1.0  0.7526306960672637  0.2473693329727235  0.7526306301140133  1.0000
