data_image0
_chemical_formula_structural       Ag2VF6
_chemical_formula_sum              "Ag2 V1 F6"
_cell_length_a       5.682522991380623
_cell_length_b       5.68252305402221
_cell_length_c       5.682522840972284
_cell_angle_alpha    59.999999727972856
_cell_angle_beta     60.00000107355669
_cell_angle_gamma    59.999999182447496

_space_group_name_H-M_alt    "P 1"
_space_group_IT_number       1

loop_
  _space_group_symop_operation_xyz
  'x, y, z'

loop_
  _atom_site_type_symbol
  _atom_site_label
  _atom_site_symmetry_multiplicity
  _atom_site_fract_x
  _atom_site_fract_y
  _atom_site_fract_z
  _atom_site_occupancy
  Ag  Ag1       1.0  0.2499999867408541  0.25000003054829134  0.24999999406606457  1.0000
  Ag  Ag2       1.0  0.7500000286562911  0.7499999838806922  0.7500000300199295  1.0000
  V   V1        1.0  7.265970016498737e-08  2.5863402078699476e-08  0.9999999718558297  1.0000
  F   F1        1.0  0.23385776474702527  0.2338576501797903  0.766142293562234  1.0000
  F   F2        1.0  0.7661422155740469  0.7661422500191631  0.23385776294205082  1.0000
  F   F3        1.0  0.7661422910824943  0.23385772623933615  0.2338577298876112  1.0000
  F   F4        1.0  0.2338577645254641  0.7661422041335862  0.7661423126014444  1.0000
  F   F5        1.0  0.23385768097684662  0.7661423235763869  0.23385763084427688  1.0000
  F   F6        1.0  0.7661422102803149  0.23385780723791497  0.7661422862527978  1.0000
