data_image0
_chemical_formula_structural       Ag2VCl6
_chemical_formula_sum              "Ag2 V1 Cl6"
_cell_length_a       6.625845015132946
_cell_length_b       6.625844194245159
_cell_length_c       6.625844322211228
_cell_angle_alpha    60.000002636179765
_cell_angle_beta     60.00000355644819
_cell_angle_gamma    59.99999895510954

_space_group_name_H-M_alt    "P 1"
_space_group_IT_number       1

loop_
  _space_group_symop_operation_xyz
  'x, y, z'

loop_
  _atom_site_type_symbol
  _atom_site_label
  _atom_site_symmetry_multiplicity
  _atom_site_fract_x
  _atom_site_fract_y
  _atom_site_fract_z
  _atom_site_occupancy
  Ag  Ag1       1.0  0.24999997805831445  0.24999997674019  0.2500000695545105  1.0000
  Ag  Ag2       1.0  0.750000032347236  0.7499999912189497  0.7499999721170688  1.0000
  V   V1        1.0  1.0961632994812703e-07  0.9999999482437875  0.9999998427844027  1.0000
  Cl  Cl1       1.0  0.2450250620266171  0.24502494274022513  0.7549750337120008  1.0000
  Cl  Cl2       1.0  0.7549748410520365  0.7549750178251736  0.24502511059714563  1.0000
  Cl  Cl3       1.0  0.7549749646674905  0.24502502979047364  0.2450250522282352  1.0000
  Cl  Cl4       1.0  0.24502481296834366  0.7549750509232668  0.7549751883011332  1.0000
  Cl  Cl5       1.0  0.24502524135414971  0.7549750765398442  0.24502475787101796  1.0000
  Cl  Cl6       1.0  0.7549749764866012  0.2450249801442123  0.7549749455560613  1.0000
