data_image0
_chemical_formula_structural       Ag2VI6
_chemical_formula_sum              "Ag2 V1 I6"
_cell_length_a       7.595508260325116
_cell_length_b       7.595508256569445
_cell_length_c       7.595508320661602
_cell_angle_alpha    59.999999918489365
_cell_angle_beta     60.00000041898974
_cell_angle_gamma    59.99999921474195

_space_group_name_H-M_alt    "P 1"
_space_group_IT_number       1

loop_
  _space_group_symop_operation_xyz
  'x, y, z'

loop_
  _atom_site_type_symbol
  _atom_site_label
  _atom_site_symmetry_multiplicity
  _atom_site_fract_x
  _atom_site_fract_y
  _atom_site_fract_z
  _atom_site_occupancy
  Ag  Ag1       1.0  0.2499999994049542  0.24999997926130405  0.2500000175510794  1.0000
  Ag  Ag2       1.0  0.7499999879104016  0.749999973258019  0.750000044018118  1.0000
  V   V1        1.0  0.9999999917532664  3.386164771114389e-08  0.9999999740268672  1.0000
  I   I1        1.0  0.24824847370800557  0.2482484966728285  0.7517515229551663  1.0000
  I   I2        1.0  0.7517514666326611  0.7517515009953586  0.24824852636126754  1.0000
  I   I3        1.0  0.7517515419420773  0.24824849538091232  0.24824843717604572  1.0000
  I   I4        1.0  0.24824853002987743  0.7517515087371113  0.7517514641057719  1.0000
  I   I5        1.0  0.24824848491464513  0.7517515379305243  0.24824849128568194  1.0000
  I   I6        1.0  0.7517515222244207  0.2482484645750406  0.7517515248459993  1.0000
