data_image0
_chemical_formula_structural       Ag2VBr6
_chemical_formula_sum              "Ag2 V1 Br6"
_cell_length_a       7.044505193513683
_cell_length_b       7.0445053533327195
_cell_length_c       7.044505237580726
_cell_angle_alpha    60.00000053880938
_cell_angle_beta     59.99999932371967
_cell_angle_gamma    59.99999932742257

_space_group_name_H-M_alt    "P 1"
_space_group_IT_number       1

loop_
  _space_group_symop_operation_xyz
  'x, y, z'

loop_
  _atom_site_type_symbol
  _atom_site_label
  _atom_site_symmetry_multiplicity
  _atom_site_fract_x
  _atom_site_fract_y
  _atom_site_fract_z
  _atom_site_occupancy
  Ag  Ag1       1.0  0.2499999243163256  0.24999996939044636  0.2500000651985077  1.0000
  Ag  Ag2       1.0  0.7500000647831107  0.7499999620673701  0.7499999844026946  1.0000
  V   V1        1.0  5.1376139202586674e-08  2.7817307638685258e-08  0.9999998880064248  1.0000
  Br  Br1       1.0  0.24669631525615315  0.246696292858775  0.7533036769479654  1.0000
  Br  Br2       1.0  0.7533037159299255  0.753303723789548  0.24669628488237838  1.0000
  Br  Br3       1.0  0.7533036532986667  0.24669631680008497  0.24669632132187638  1.0000
  Br  Br4       1.0  0.24669621973349665  0.753303741574203  0.753303762602018  1.0000
  Br  Br5       1.0  0.24669634530795706  0.7533036572510073  0.2466962671233149  1.0000
  Br  Br6       1.0  0.7533036999856387  0.24669630723986208  0.7533037392838271  1.0000
