data_image0
_chemical_formula_structural       Ag2VCl6
_chemical_formula_sum              "Ag2 V1 Cl6"
_cell_length_a       6.627664450492009
_cell_length_b       6.6276644222557355
_cell_length_c       6.627664640238031
_cell_angle_alpha    59.999999020983246
_cell_angle_beta     59.99999966945492
_cell_angle_gamma    60.00000017500424

_space_group_name_H-M_alt    "P 1"
_space_group_IT_number       1

loop_
  _space_group_symop_operation_xyz
  'x, y, z'

loop_
  _atom_site_type_symbol
  _atom_site_label
  _atom_site_symmetry_multiplicity
  _atom_site_fract_x
  _atom_site_fract_y
  _atom_site_fract_z
  _atom_site_occupancy
  Ag  Ag1       1.0  0.24999999558647726  0.25000001759443624  0.25000001135937855  1.0000
  Ag  Ag2       1.0  0.749999998867584  0.7500000269123123  0.7500000017300534  1.0000
  V   V1        1.0  0.9999999530832427  0.999999963041433  9.474661025081275e-08  1.0000
  Cl  Cl1       1.0  0.24502312479805147  0.2450231357832879  0.7549768755433044  1.0000
  Cl  Cl2       1.0  0.7549768677205291  0.7549768883962491  0.2450231139744504  1.0000
  Cl  Cl3       1.0  0.754976838860437  0.24502315171725012  0.24502317994436754  1.0000
  Cl  Cl4       1.0  0.24502323517524666  0.7549768003930828  0.7549767791993773  1.0000
  Cl  Cl5       1.0  0.24502317840951507  0.754976830517999  0.2450231989899505  1.0000
  Cl  Cl6       1.0  0.7549767986402434  0.2450231825739679  0.7549767917353837  1.0000
