data_image0
_chemical_formula_structural       Ag2VI6
_chemical_formula_sum              "Ag2 V1 I6"
_cell_length_a       7.593588757514585
_cell_length_b       7.593588332139182
_cell_length_c       7.593588344035732
_cell_angle_alpha    60.000001786629554
_cell_angle_beta     59.9999990408896
_cell_angle_gamma    60.00000133022119

_space_group_name_H-M_alt    "P 1"
_space_group_IT_number       1

loop_
  _space_group_symop_operation_xyz
  'x, y, z'

loop_
  _atom_site_type_symbol
  _atom_site_label
  _atom_site_symmetry_multiplicity
  _atom_site_fract_x
  _atom_site_fract_y
  _atom_site_fract_z
  _atom_site_occupancy
  Ag  Ag1       1.0  0.24999998014739994  0.25000003142432325  0.24999995401651215  1.0000
  Ag  Ag2       1.0  0.7499999734374646  0.7499999587921422  0.7500000634189679  1.0000
  V   V1        1.0  3.1118789997298125e-08  1.6128671973503165e-08  4.031178295669e-09  1.0000
  I   I1        1.0  0.24828918549357393  0.2482891660424845  0.7517108614776575  1.0000
  I   I2        1.0  0.7517108294697608  0.7517107951423766  0.24828919114350592  1.0000
  I   I3        1.0  0.7517108809415225  0.24828915234847823  0.24828919652775322  1.0000
  I   I4        1.0  0.24828923691838434  0.75171075561177  0.7517107733138074  1.0000
  I   I5        1.0  0.24828918179502812  0.7517108124478932  0.2482892006253758  1.0000
  I   I6        1.0  0.7517107330810306  0.24828929389499824  0.751710728059079  1.0000
