data_image0
_chemical_formula_structural       Ag2VF6
_chemical_formula_sum              "Ag2 V1 F6"
_cell_length_a       5.682687347480084
_cell_length_b       5.682687179224039
_cell_length_c       5.68268759469675
_cell_angle_alpha    59.99999829873684
_cell_angle_beta     59.999999497352846
_cell_angle_gamma    60.00000042521998

_space_group_name_H-M_alt    "P 1"
_space_group_IT_number       1

loop_
  _space_group_symop_operation_xyz
  'x, y, z'

loop_
  _atom_site_type_symbol
  _atom_site_label
  _atom_site_symmetry_multiplicity
  _atom_site_fract_x
  _atom_site_fract_y
  _atom_site_fract_z
  _atom_site_occupancy
  Ag  Ag1       1.0  0.250000000279921  0.25000001718078424  0.2500000106982951  1.0000
  Ag  Ag2       1.0  0.7499999415853787  0.7499999976618164  0.7499999637214627  1.0000
  V   V1        1.0  0.9999999853043767  0.999999989223893  5.4969402524077605e-08  1.0000
  F   F1        1.0  0.23394044564763952  0.2339402986663694  0.7660596264207785  1.0000
  F   F2        1.0  0.7660595897513609  0.766059606259943  0.2339403984238107  1.0000
  F   F3        1.0  0.76605949633621  0.23394052843276145  0.2339405462883611  1.0000
  F   F4        1.0  0.23394046833141494  0.7660595338247104  0.7660594686912204  1.0000
  F   F5        1.0  0.2339405436178854  0.7660595184496217  0.2339404598879228  1.0000
  F   F6        1.0  0.7660595777784874  0.23394049423776161  0.7660594663177155  1.0000
