data_image0
_chemical_formula_structural       Ag2WBr6
_chemical_formula_sum              "Ag2 W1 Br6"
_cell_length_a       7.189194744000008
_cell_length_b       7.1891943995440935
_cell_length_c       7.189194577544683
_cell_angle_alpha    60.00000131525839
_cell_angle_beta     60.000000637013635
_cell_angle_gamma    60.00000402739763

_space_group_name_H-M_alt    "P 1"
_space_group_IT_number       1

loop_
  _space_group_symop_operation_xyz
  'x, y, z'

loop_
  _atom_site_type_symbol
  _atom_site_label
  _atom_site_symmetry_multiplicity
  _atom_site_fract_x
  _atom_site_fract_y
  _atom_site_fract_z
  _atom_site_occupancy
  Ag  Ag1       1.0  0.2499999942098193  0.25000000575779313  0.2500000151037102  1.0000
  Ag  Ag2       1.0  0.7500000170408508  0.7499999814979644  0.7500000042638492  1.0000
  W   W1        1.0  0.9999998624270184  0.999999689946389  8.332467492806464e-08  1.0000
  Br  Br1       1.0  0.24737557267199753  0.24737539720760213  0.7526244941133166  1.0000
  Br  Br2       1.0  0.7526246238354879  0.7526247859611523  0.2473752832032129  1.0000
  Br  Br3       1.0  0.7526243998785133  0.2473755419733457  0.24737547085131054  1.0000
  Br  Br4       1.0  0.24737545083389437  0.7526246377882149  0.7526246535474289  1.0000
  Br  Br5       1.0  0.24737563980723815  0.7526244294046881  0.24737541998602744  1.0000
  Br  Br6       1.0  0.752624442504241  0.2473755374079781  0.7526245685087674  1.0000
