data_image0
_chemical_formula_structural       Ag2WI6
_chemical_formula_sum              "Ag2 W1 I6"
_cell_length_a       7.726060030073495
_cell_length_b       7.726060484983845
_cell_length_c       7.726060322262371
_cell_angle_alpha    59.99999991944268
_cell_angle_beta     60.000000332324866
_cell_angle_gamma    60.00000265949747

_space_group_name_H-M_alt    "P 1"
_space_group_IT_number       1

loop_
  _space_group_symop_operation_xyz
  'x, y, z'

loop_
  _atom_site_type_symbol
  _atom_site_label
  _atom_site_symmetry_multiplicity
  _atom_site_fract_x
  _atom_site_fract_y
  _atom_site_fract_z
  _atom_site_occupancy
  Ag  Ag1       1.0  0.24999996808904798  0.24999995897985422  0.25000007408312713  1.0000
  Ag  Ag2       1.0  0.7500000087174142  0.7500000164382772  0.7499999540166474  1.0000
  W   W1        1.0  0.9999993906939406  0.9999997923371347  4.7320049254238247e-07  1.0000
  I   I1        1.0  0.24933752712158194  0.24933763388651556  0.7506623974243282  1.0000
  I   I2        1.0  0.7506629248384944  0.750662844044025  0.2493371172503437  1.0000
  I   I3        1.0  0.7506625948261546  0.24933743784064866  0.24933733499453864  1.0000
  I   I4        1.0  0.24933750889819425  0.7506624392943055  0.7506625066432268  1.0000
  I   I5        1.0  0.2493374846292738  0.7506624387850074  0.24933752175794008  1.0000
  I   I6        1.0  0.7506626064289342  0.24933744944643083  0.7506625937663265  1.0000
