data_image0
_chemical_formula_structural       Ag2ZrBr6
_chemical_formula_sum              "Ag2 Zr1 Br6"
_cell_length_a       7.330735375781117
_cell_length_b       7.330735040841785
_cell_length_c       7.330735710145527
_cell_angle_alpha    59.99999897889716
_cell_angle_beta     59.999999686262015
_cell_angle_gamma    60.000001091696156

_space_group_name_H-M_alt    "P 1"
_space_group_IT_number       1

loop_
  _space_group_symop_operation_xyz
  'x, y, z'

loop_
  _atom_site_type_symbol
  _atom_site_label
  _atom_site_symmetry_multiplicity
  _atom_site_fract_x
  _atom_site_fract_y
  _atom_site_fract_z
  _atom_site_occupancy
  Ag  Ag1       1.0  0.25000002254788684  0.24999995701424707  0.25000001556195134  1.0000
  Ag  Ag2       1.0  0.7499999913976108  0.7500000147228197  0.7500000429794714  1.0000
  Zr  Zr1       1.0  0.9999999979307145  5.3462360044096973e-08  2.348503002364357e-07  1.0000
  Br  Br1       1.0  0.2531317083737901  0.2531318327182799  0.7468681591540235  1.0000
  Br  Br2       1.0  0.7468682756274698  0.7468681674206599  0.2531317651107451  1.0000
  Br  Br3       1.0  0.7468681542748938  0.2531318317046746  0.2531316865283141  1.0000
  Br  Br4       1.0  0.25313180804007246  0.7468681767877574  0.7468682307616592  1.0000
  Br  Br5       1.0  0.2531318263849618  0.7468681795230334  0.253131637276596  1.0000
  Br  Br6       1.0  0.7468682116491302  0.25313179555542825  0.7468682343066477  1.0000
