data_image0
_chemical_formula_structural       Ag2ZnBr6
_chemical_formula_sum              "Ag2 Zn1 Br6"
_cell_length_a       7.03437031132537
_cell_length_b       7.034370349365562
_cell_length_c       7.034370470964298
_cell_angle_alpha    59.99999895810398
_cell_angle_beta     60.00000020240589
_cell_angle_gamma    59.999999527945825

_space_group_name_H-M_alt    "P 1"
_space_group_IT_number       1

loop_
  _space_group_symop_operation_xyz
  'x, y, z'

loop_
  _atom_site_type_symbol
  _atom_site_label
  _atom_site_symmetry_multiplicity
  _atom_site_fract_x
  _atom_site_fract_y
  _atom_site_fract_z
  _atom_site_occupancy
  Ag  Ag1       1.0  0.24999998424878467  0.2499999869581606  0.2500000259025916  1.0000
  Ag  Ag2       1.0  0.7499999966518034  0.7500000113659974  0.7499999864399617  1.0000
  Zn  Zn1       1.0  3.7091929991355555e-08  0.9999999773658729  0.9999999515449507  1.0000
  Br  Br1       1.0  0.2539990107575154  0.25399897490723317  0.7460010392328217  1.0000
  Br  Br2       1.0  0.7460009883988573  0.7460010129704039  0.25399901611761344  1.0000
  Br  Br3       1.0  0.7460010262500263  0.2539990062882819  0.2539989952053538  1.0000
  Br  Br4       1.0  0.2539989421642315  0.7460010442684776  0.7460010285390728  1.0000
  Br  Br5       1.0  0.2539989593708632  0.7460009981707442  0.25399895064592387  1.0000
  Br  Br6       1.0  0.7460010403658707  0.25399898796580717  0.7460010185678032  1.0000
