data_image0
_chemical_formula_structural       Ag2ZrI6
_chemical_formula_sum              "Ag2 Zr1 I6"
_cell_length_a       7.957879452771197
_cell_length_b       7.957879410939474
_cell_length_c       7.9578797468908755
_cell_angle_alpha    59.999998130919394
_cell_angle_beta     59.99999744440205
_cell_angle_gamma    60.000003662925955

_space_group_name_H-M_alt    "P 1"
_space_group_IT_number       1

loop_
  _space_group_symop_operation_xyz
  'x, y, z'

loop_
  _atom_site_type_symbol
  _atom_site_label
  _atom_site_symmetry_multiplicity
  _atom_site_fract_x
  _atom_site_fract_y
  _atom_site_fract_z
  _atom_site_occupancy
  Ag  Ag1       1.0  0.24999997315100447  0.2500000106710288  0.24999998916524246  1.0000
  Ag  Ag2       1.0  0.7500000358133992  0.7499999919982036  0.749999949428833  1.0000
  Zr  Zr1       1.0  0.9999999613204945  2.4624545189645986e-08  1.201229315835741e-07  1.0000
  I   I1        1.0  0.2529999698938073  0.25299995620215315  0.7470000678190282  1.0000
  I   I2        1.0  0.7470000351576417  0.7470000233815657  0.2529999848035712  1.0000
  I   I3        1.0  0.7469999259461286  0.2530001541934828  0.25300007849381445  1.0000
  I   I4        1.0  0.2530002152669118  0.7469997869143885  0.7469998235000059  1.0000
  I   I5        1.0  0.25300005877757287  0.7469998671023682  0.2530001801983619  1.0000
  I   I6        1.0  0.7469998229802886  0.253000186354986  0.7469998104277022  1.0000
