data_image0
_chemical_formula_structural       Ag2ZnF6
_chemical_formula_sum              "Ag2 Zn1 F6"
_cell_length_a       5.610923605657267
_cell_length_b       5.6109236253657055
_cell_length_c       5.610923421000685
_cell_angle_alpha    60.00000020455891
_cell_angle_beta     59.999998998287175
_cell_angle_gamma    59.99999983525905

_space_group_name_H-M_alt    "P 1"
_space_group_IT_number       1

loop_
  _space_group_symop_operation_xyz
  'x, y, z'

loop_
  _atom_site_type_symbol
  _atom_site_label
  _atom_site_symmetry_multiplicity
  _atom_site_fract_x
  _atom_site_fract_y
  _atom_site_fract_z
  _atom_site_occupancy
  Ag  Ag1       1.0  0.2500000146343489  0.2500000648629114  0.24999999353200003  1.0000
  Ag  Ag2       1.0  0.7500000385424638  0.7500000439764618  0.74999998372844  1.0000
  Zn  Zn1       1.0  5.779030137756433e-08  0.9999999192368977  0.9999998653428979  1.0000
  F   F1        1.0  0.24882656339453063  0.24882654252103784  0.7511734517452775  1.0000
  F   F2        1.0  0.751173503920525  0.7511734004265571  0.2488265194089909  1.0000
  F   F3        1.0  0.7511733817959519  0.24882658832303425  0.2488266763657278  1.0000
  F   F4        1.0  0.24882644533792667  0.7511735750860031  0.7511734543563878  1.0000
  F   F5        1.0  0.24882658984131525  0.7511733585357147  0.2488265416671938  1.0000
  F   F6        1.0  0.7511734378127487  0.2488265058315641  0.751173508212346  1.0000
