data_image0
_chemical_formula_structural       Ag2ZrCl6
_chemical_formula_sum              "Ag2 Zr1 Cl6"
_cell_length_a       6.837905693811443
_cell_length_b       6.837905741481095
_cell_length_c       6.8379056303098995
_cell_angle_alpha    59.99999977402512
_cell_angle_beta     60.000001141863606
_cell_angle_gamma    59.999999020527035

_space_group_name_H-M_alt    "P 1"
_space_group_IT_number       1

loop_
  _space_group_symop_operation_xyz
  'x, y, z'

loop_
  _atom_site_type_symbol
  _atom_site_label
  _atom_site_symmetry_multiplicity
  _atom_site_fract_x
  _atom_site_fract_y
  _atom_site_fract_z
  _atom_site_occupancy
  Ag  Ag1       1.0  0.2500000245599049  0.2500000115295821  0.2499999696358002  1.0000
  Ag  Ag2       1.0  0.7499999923159749  0.7500000507087462  0.7500000263505632  1.0000
  Zr  Zr1       1.0  0.9999999013573356  7.164445930126838e-09  2.3802567148908752e-08  1.0000
  Cl  Cl1       1.0  0.25411922683519633  0.2541191992713535  0.7458807841126495  1.0000
  Cl  Cl2       1.0  0.7458808917036838  0.745880785949197  0.25411917615212637  1.0000
  Cl  Cl3       1.0  0.7458808724318255  0.2541190989216615  0.25411920094741214  1.0000
  Cl  Cl4       1.0  0.25411916728662387  0.7458807985344471  0.7458808104362059  1.0000
  Cl  Cl5       1.0  0.2541191077209914  0.7458808938989225  0.25411916378678223  1.0000
  Cl  Cl6       1.0  0.7458808151860846  0.2541191665482965  0.7458808318191462  1.0000
