data_image0
_chemical_formula_structural       Ag2ZnI6
_chemical_formula_sum              "Ag2 Zn1 I6"
_cell_length_a       7.589790081159013
_cell_length_b       7.589789906969895
_cell_length_c       7.589789781461699
_cell_angle_alpha    60.000000248314045
_cell_angle_beta     60.0000001522919
_cell_angle_gamma    59.99999906398727

_space_group_name_H-M_alt    "P 1"
_space_group_IT_number       1

loop_
  _space_group_symop_operation_xyz
  'x, y, z'

loop_
  _atom_site_type_symbol
  _atom_site_label
  _atom_site_symmetry_multiplicity
  _atom_site_fract_x
  _atom_site_fract_y
  _atom_site_fract_z
  _atom_site_occupancy
  Ag  Ag1       1.0  0.2500000048585781  0.24999999159005581  0.24999999629970587  1.0000
  Ag  Ag2       1.0  0.7500000155275609  0.7500000312487674  0.74999991406932  1.0000
  Zn  Zn1       1.0  5.3678303046343283e-08  3.0659810808171046e-08  0.9999999090812393  1.0000
  I   I1        1.0  0.25673012844996507  0.2567301917454759  0.7432698421614807  1.0000
  I   I2        1.0  0.7432698261948993  0.743269768160051  0.256730215551083  1.0000
  I   I3        1.0  0.7432698307487247  0.2567301375908722  0.25673022203875084  1.0000
  I   I4        1.0  0.2567301547536416  0.7432698529744657  0.7432698470770617  1.0000
  I   I5        1.0  0.25673020882357955  0.743269821840681  0.2567301623996397  1.0000
  I   I6        1.0  0.7432697893877717  0.25673016711098257  0.7432698906280408  1.0000
