data_image0
_chemical_formula_structural       Au2BeBr6
_chemical_formula_sum              "Au2 Be1 Br6"
_cell_length_a       7.064609252645352
_cell_length_b       7.064609206413726
_cell_length_c       7.0646089066594655
_cell_angle_alpha    60.00000168200363
_cell_angle_beta     60.0000022966475
_cell_angle_gamma    60.0000017186792

_space_group_name_H-M_alt    "P 1"
_space_group_IT_number       1

loop_
  _space_group_symop_operation_xyz
  'x, y, z'

loop_
  _atom_site_type_symbol
  _atom_site_label
  _atom_site_symmetry_multiplicity
  _atom_site_fract_x
  _atom_site_fract_y
  _atom_site_fract_z
  _atom_site_occupancy
  Au  Au1       1.0  0.25000011112561066  0.24999970883617506  0.2500002229942413  1.0000
  Au  Au2       1.0  0.7500001554666836  0.7500000279983347  0.7499999165130935  1.0000
  Be  Be1       1.0  0.9999999588092996  0.9999999029164814  0.9999998653041695  1.0000
  Br  Br1       1.0  0.24470804667345014  0.24470809566487445  0.7552919678730212  1.0000
  Br  Br2       1.0  0.7552919073295834  0.7552920052328262  0.24470806945999513  1.0000
  Br  Br3       1.0  0.7552918692884251  0.2447080920683192  0.24470802516209794  1.0000
  Br  Br4       1.0  0.24470798831103632  0.7552921215156072  0.7552919148526805  1.0000
  Br  Br5       1.0  0.2447079694965547  0.7552920449295722  0.24470803247865167  1.0000
  Br  Br6       1.0  0.7552919578108465  0.244707998758198  0.7552920015109373  1.0000
