data_image0
_chemical_formula_structural       Au2BeCl6
_chemical_formula_sum              "Au2 Be1 Cl6"
_cell_length_a       6.556652459602372
_cell_length_b       6.556652388689796
_cell_length_c       6.556652452821458
_cell_angle_alpha    60.00000502187705
_cell_angle_beta     60.00000278226637
_cell_angle_gamma    60.00000388130966

_space_group_name_H-M_alt    "P 1"
_space_group_IT_number       1

loop_
  _space_group_symop_operation_xyz
  'x, y, z'

loop_
  _atom_site_type_symbol
  _atom_site_label
  _atom_site_symmetry_multiplicity
  _atom_site_fract_x
  _atom_site_fract_y
  _atom_site_fract_z
  _atom_site_occupancy
  Au  Au1       1.0  0.2500005975491146  0.2500008594906794  0.2499986696259518  1.0000
  Au  Au2       1.0  0.7499998989147966  0.7500006358122121  0.7500006922044739  1.0000
  Be  Be1       1.0  4.438496861175313e-08  0.9999999196784929  1.9946332232587022e-07  1.0000
  Cl  Cl1       1.0  0.2488256295556788  0.24882525029607352  0.7511746404458368  1.0000
  Cl  Cl2       1.0  0.7511743762301296  0.7511743621209975  0.24882541706219644  1.0000
  Cl  Cl3       1.0  0.7511744326439147  0.2488254960379654  0.2488255306086406  1.0000
  Cl  Cl4       1.0  0.24882525169768743  0.7511739183772257  0.7511748339026462  1.0000
  Cl  Cl5       1.0  0.24882566200685416  0.7511742835527266  0.24882536578737058  1.0000
  Cl  Cl6       1.0  0.7511741020089999  0.24882529337342965  0.7511746458056986  1.0000
