data_image0
_chemical_formula_structural       Au2BeI6
_chemical_formula_sum              "Au2 Be1 I6"
_cell_length_a       7.471399502008556
_cell_length_b       7.471399461493245
_cell_length_c       7.471399400927498
_cell_angle_alpha    59.99999955737218
_cell_angle_beta     59.999999819521584
_cell_angle_gamma    60.0000010998609

_space_group_name_H-M_alt    "P 1"
_space_group_IT_number       1

loop_
  _space_group_symop_operation_xyz
  'x, y, z'

loop_
  _atom_site_type_symbol
  _atom_site_label
  _atom_site_symmetry_multiplicity
  _atom_site_fract_x
  _atom_site_fract_y
  _atom_site_fract_z
  _atom_site_occupancy
  Au  Au1       1.0  0.24999999189571748  0.24999999653223628  0.24999999650227206  1.0000
  Au  Au2       1.0  0.7500000050193752  0.7500000453310146  0.749999902805119  1.0000
  Be  Be1       1.0  0.9999999910859492  8.196221130677381e-09  8.389538958379239e-09  1.0000
  I   I1        1.0  0.24423508559764093  0.244235014126116  0.755764947542817  1.0000
  I   I2        1.0  0.7557649003597455  0.7557649539711423  0.24423506104829146  1.0000
  I   I3        1.0  0.7557649688529405  0.24423504360673917  0.2442350888324454  1.0000
  I   I4        1.0  0.24423504051985587  0.7557649933387783  0.7557649351949459  1.0000
  I   I5        1.0  0.24423501954371463  0.7557649454299985  0.24423510690171132  1.0000
  I   I6        1.0  0.7557649927031591  0.24423499480010755  0.7557649600310355  1.0000
