data_image0
_chemical_formula_structural       Au2CoCl6
_chemical_formula_sum              "Au2 Co1 Cl6"
_cell_length_a       7.313108421438338
_cell_length_b       7.313108129509897
_cell_length_c       7.313108991492348
_cell_angle_alpha    60.000001851984536
_cell_angle_beta     60.000003474136136
_cell_angle_gamma    60.00000290906486

_space_group_name_H-M_alt    "P 1"
_space_group_IT_number       1

loop_
  _space_group_symop_operation_xyz
  'x, y, z'

loop_
  _atom_site_type_symbol
  _atom_site_label
  _atom_site_symmetry_multiplicity
  _atom_site_fract_x
  _atom_site_fract_y
  _atom_site_fract_z
  _atom_site_occupancy
  Au  Au1       1.0  0.250000120932042  0.24999894766347017  0.249999802146964  1.0000
  Au  Au2       1.0  0.7499985998758235  0.7499989012281327  0.7500029521498177  1.0000
  Co  Co1       1.0  1.1706363801244279e-07  9.880881702727469e-08  1.600756498974608e-07  1.0000
  Cl  Cl1       1.0  0.21177498829312313  0.21177495165887064  0.7882250268331432  1.0000
  Cl  Cl2       1.0  0.7882251537756378  0.7882255918659915  0.21177423237147278  1.0000
  Cl  Cl3       1.0  0.7882255956235216  0.2117755307301823  0.2117739361571516  1.0000
  Cl  Cl4       1.0  0.21177507853086008  0.7882252070628447  0.7882248983372674  1.0000
  Cl  Cl5       1.0  0.2117753775722648  0.7882257202523276  0.21177399012976034  1.0000
  Cl  Cl6       1.0  0.7882249636789378  0.2117750594088299  0.7882250254347641  1.0000
