data_image0
_chemical_formula_structural       Au2CrBr6
_chemical_formula_sum              "Au2 Cr1 Br6"
_cell_length_a       7.251251363658301
_cell_length_b       7.251251174801652
_cell_length_c       7.2512510969085575
_cell_angle_alpha    59.99999995201759
_cell_angle_beta     59.99999943555722
_cell_angle_gamma    59.99999928133686

_space_group_name_H-M_alt    "P 1"
_space_group_IT_number       1

loop_
  _space_group_symop_operation_xyz
  'x, y, z'

loop_
  _atom_site_type_symbol
  _atom_site_label
  _atom_site_symmetry_multiplicity
  _atom_site_fract_x
  _atom_site_fract_y
  _atom_site_fract_z
  _atom_site_occupancy
  Au  Au1       1.0  0.25000001024243884  0.2500000120164519  0.25000002494917184  1.0000
  Au  Au2       1.0  0.7500000356977585  0.7500000259152846  0.7499999022871395  1.0000
  Cr  Cr1       1.0  0.9999998775909226  1.2836489669712674e-07  3.1498900726332616e-08  1.0000
  Br  Br1       1.0  0.2381402660517928  0.23814034149433178  0.7618596692772035  1.0000
  Br  Br2       1.0  0.7618597250066528  0.7618596795472871  0.23814030211947756  1.0000
  Br  Br3       1.0  0.7618597491082926  0.23814021493385706  0.23814025872246866  1.0000
  Br  Br4       1.0  0.23814033188446607  0.7618596270725114  0.7618597351595224  1.0000
  Br  Br5       1.0  0.23814028422197756  0.7618596597220186  0.23814036386543  1.0000
  Br  Br6       1.0  0.7618597198821533  0.23814031740529365  0.7618597084680483  1.0000
