data_image0
_chemical_formula_structural       Au2CI6
_chemical_formula_sum              "Au2 C1 I6"
_cell_length_a       7.360938637958088
_cell_length_b       7.360938561213532
_cell_length_c       7.360938527086371
_cell_angle_alpha    59.999999631783005
_cell_angle_beta     59.99999989315133
_cell_angle_gamma    60.00000003579343

_space_group_name_H-M_alt    "P 1"
_space_group_IT_number       1

loop_
  _space_group_symop_operation_xyz
  'x, y, z'

loop_
  _atom_site_type_symbol
  _atom_site_label
  _atom_site_symmetry_multiplicity
  _atom_site_fract_x
  _atom_site_fract_y
  _atom_site_fract_z
  _atom_site_occupancy
  Au  Au1       1.0  0.24999999924841257  0.24999996337475072  0.25000002694652107  1.0000
  Au  Au2       1.0  0.7500000532174063  0.7500000248955646  0.7499999816422546  1.0000
  C   C1        1.0  3.240412929573106e-08  0.9999999733785064  0.9999999916745924  1.0000
  I   I1        1.0  0.2532971752393501  0.25329718665592205  0.7467028037061605  1.0000
  I   I2        1.0  0.7467027741526147  0.7467028049420797  0.25329720992445964  1.0000
  I   I3        1.0  0.74670275247909  0.2532972414238148  0.2532972418599889  1.0000
  I   I4        1.0  0.25329721968191854  0.7467027901064276  0.746702779817139  1.0000
  I   I5        1.0  0.25329721637387237  0.7467027902318064  0.2532972222348109  1.0000
  I   I6        1.0  0.7467027822808203  0.2532972229961593  0.7467027518738958  1.0000
