data_image0
_chemical_formula_structural       Au2CoI6
_chemical_formula_sum              "Au2 Co1 I6"
_cell_length_a       7.411263486988504
_cell_length_b       7.411263775563894
_cell_length_c       7.411263707135033
_cell_angle_alpha    60.00000096232773
_cell_angle_beta     59.99999988673686
_cell_angle_gamma    60.00000115202712

_space_group_name_H-M_alt    "P 1"
_space_group_IT_number       1

loop_
  _space_group_symop_operation_xyz
  'x, y, z'

loop_
  _atom_site_type_symbol
  _atom_site_label
  _atom_site_symmetry_multiplicity
  _atom_site_fract_x
  _atom_site_fract_y
  _atom_site_fract_z
  _atom_site_occupancy
  Au  Au1       1.0  0.2499999842749057  0.2500000736633121  0.24999996803598748  1.0000
  Au  Au2       1.0  0.7499999733196131  0.7499999631928825  0.7500001037168934  1.0000
  Co  Co1       1.0  0.9999999715773343  1.9830542867977495e-08  6.636374884171122e-08  1.0000
  I   I1        1.0  0.24971352214089473  0.24971358389473786  0.7502864462012068  1.0000
  I   I2        1.0  0.7502864912917693  0.750286411647826  0.24971352518788573  1.0000
  I   I3        1.0  0.7502864333434567  0.249713561629476  0.2497135014910444  1.0000
  I   I4        1.0  0.24971360879540486  0.7502863992096381  0.7502864364656403  1.0000
  I   I5        1.0  0.24971357702768612  0.7502864533129222  0.24971349244857916  1.0000
  I   I6        1.0  0.7502864277966392  0.249713530661825  0.7502864593440448  1.0000
