data_image0
_chemical_formula_structural       Au2CoI6
_chemical_formula_sum              "Au2 Co1 I6"
_cell_length_a       7.408609656844936
_cell_length_b       7.40860958817296
_cell_length_c       7.408609511260958
_cell_angle_alpha    60.000000332402095
_cell_angle_beta     60.000001163015256
_cell_angle_gamma    59.999998588333355

_space_group_name_H-M_alt    "P 1"
_space_group_IT_number       1

loop_
  _space_group_symop_operation_xyz
  'x, y, z'

loop_
  _atom_site_type_symbol
  _atom_site_label
  _atom_site_symmetry_multiplicity
  _atom_site_fract_x
  _atom_site_fract_y
  _atom_site_fract_z
  _atom_site_occupancy
  Au  Au1       1.0  0.24999999797834158  0.25000000396571936  0.2500000100146234  1.0000
  Au  Au2       1.0  0.7499999961392074  0.7500000052846089  0.749999986355501  1.0000
  Co  Co1       1.0  3.6871402214640566e-08  0.9999999735498027  0.9999999893902739  1.0000
  I   I1        1.0  0.2497660748391011  0.24976604103032546  0.7502339401430334  1.0000
  I   I2        1.0  0.7502339217500431  0.7502339748325519  0.24976606923217137  1.0000
  I   I3        1.0  0.7502339268141429  0.24976605054930476  0.2497660467600172  1.0000
  I   I4        1.0  0.24976601341447213  0.7502339239851414  0.7502339898631721  1.0000
  I   I5        1.0  0.24976606923710834  0.7502339498147934  0.2497660279832528  1.0000
  I   I6        1.0  0.7502339604444402  0.24976607431376988  0.7502339499146593  1.0000
