data_image0
_chemical_formula_structural       Au2CoF6
_chemical_formula_sum              "Au2 Co1 F6"
_cell_length_a       5.343804306146353
_cell_length_b       5.343804347776309
_cell_length_c       5.343804222444344
_cell_angle_alpha    59.999999026398214
_cell_angle_beta     60.00000036796253
_cell_angle_gamma    59.99999924921288

_space_group_name_H-M_alt    "P 1"
_space_group_IT_number       1

loop_
  _space_group_symop_operation_xyz
  'x, y, z'

loop_
  _atom_site_type_symbol
  _atom_site_label
  _atom_site_symmetry_multiplicity
  _atom_site_fract_x
  _atom_site_fract_y
  _atom_site_fract_z
  _atom_site_occupancy
  Au  Au1       1.0  0.25000024794292813  0.24999970226751583  0.24999999300708706  1.0000
  Au  Au2       1.0  0.750000178595734  0.749999966263903  0.7499999292160519  1.0000
  Co  Co1       1.0  7.001882866094331e-08  2.979466098094927e-08  0.9999998958247995  1.0000
  F   F1        1.0  0.24481700071195384  0.24481733092053373  0.7551828114983884  1.0000
  F   F2        1.0  0.7551826702280834  0.7551829060013315  0.2448172080714852  1.0000
  F   F3        1.0  0.7551827886079006  0.24481722090596317  0.24481718210890788  1.0000
  F   F4        1.0  0.2448170939204152  0.7551828739182894  0.7551828551127637  1.0000
  F   F5        1.0  0.24481715995128459  0.7551828402042597  0.24481725360127693  1.0000
  F   F6        1.0  0.7551828041228132  0.2448171331494531  0.755182859722556  1.0000
