data_image0
_chemical_formula_structural       Au2CCl6
_chemical_formula_sum              "Au2 C1 Cl6"
_cell_length_a       11.384940918738788
_cell_length_b       11.373796061460851
_cell_length_c       11.383690370653158
_cell_angle_alpha    60.10780168908175
_cell_angle_beta     59.94738692085561
_cell_angle_gamma    59.82530296318346

_space_group_name_H-M_alt    "P 1"
_space_group_IT_number       1

loop_
  _space_group_symop_operation_xyz
  'x, y, z'

loop_
  _atom_site_type_symbol
  _atom_site_label
  _atom_site_symmetry_multiplicity
  _atom_site_fract_x
  _atom_site_fract_y
  _atom_site_fract_z
  _atom_site_occupancy
  Au  Au1       1.0  0.24680866054465447  0.26288172016635863  0.24483537908635203  1.0000
  Au  Au2       1.0  0.7506169381772957  0.750219683501704  0.7493031094760377  1.0000
  C   C1        1.0  0.9878037731518137  0.030150067796389606  0.9915223239281483  1.0000
  Cl  Cl1       1.0  0.11466290651658559  0.1280393953770122  0.8803673630382117  1.0000
  Cl  Cl2       1.0  0.8844876868875305  0.8570767408137601  0.12750735846640046  1.0000
  Cl  Cl3       1.0  0.8734271469212537  0.11070095644230263  0.13328694002367228  1.0000
  Cl  Cl4       1.0  0.1343629781518551  0.8751243363287629  0.8653980134643784  1.0000
  Cl  Cl5       1.0  0.1357831956828559  0.870864134044863  0.12323744172556324  1.0000
  Cl  Cl6       1.0  0.8720463077103702  0.11494385607370265  0.884542261407949  1.0000
