data_image0
_chemical_formula_structural       Au2CoCl6
_chemical_formula_sum              "Au2 Co1 Cl6"
_cell_length_a       7.31146263709193
_cell_length_b       7.31146286716775
_cell_length_c       7.311460434328369
_cell_angle_alpha    60.00000803659377
_cell_angle_beta     60.00000308785473
_cell_angle_gamma    60.00000415541849

_space_group_name_H-M_alt    "P 1"
_space_group_IT_number       1

loop_
  _space_group_symop_operation_xyz
  'x, y, z'

loop_
  _atom_site_type_symbol
  _atom_site_label
  _atom_site_symmetry_multiplicity
  _atom_site_fract_x
  _atom_site_fract_y
  _atom_site_fract_z
  _atom_site_occupancy
  Au  Au1       1.0  0.2500002919520694  0.24999939407347976  0.24999988300431278  1.0000
  Au  Au2       1.0  0.7499994998100877  0.7499998087446943  0.7500007000094993  1.0000
  Co  Co1       1.0  1.7358090049737368e-07  0.9999999246203998  0.9999997908765932  1.0000
  Cl  Cl1       1.0  0.21184733604487288  0.2118472458348348  0.7881528335747311  1.0000
  Cl  Cl2       1.0  0.7881536584712712  0.7881531245295716  0.21184643298816536  1.0000
  Cl  Cl3       1.0  0.7881528315048203  0.21184647833528536  0.2118474708936295  1.0000
  Cl  Cl4       1.0  0.21184649948117418  0.7881538367507638  0.7881527891097567  1.0000
  Cl  Cl5       1.0  0.21184654385855475  0.7881534207276841  0.21184715506981722  1.0000
  Cl  Cl6       1.0  0.7881531870274763  0.21184679385222896  0.7881528540256307  1.0000
