data_image0
_chemical_formula_structural       Au2CoBr6
_chemical_formula_sum              "Au2 Co1 Br6"
_cell_length_a       7.150194658474638
_cell_length_b       7.1501947931595655
_cell_length_c       7.150194873593174
_cell_angle_alpha    60.00000013450722
_cell_angle_beta     60.000001139804624
_cell_angle_gamma    60.000000127173536

_space_group_name_H-M_alt    "P 1"
_space_group_IT_number       1

loop_
  _space_group_symop_operation_xyz
  'x, y, z'

loop_
  _atom_site_type_symbol
  _atom_site_label
  _atom_site_symmetry_multiplicity
  _atom_site_fract_x
  _atom_site_fract_y
  _atom_site_fract_z
  _atom_site_occupancy
  Au  Au1       1.0  0.2500000407096075  0.24999997505724517  0.24999989546055232  1.0000
  Au  Au2       1.0  0.7499999295752143  0.7500000861827584  0.750000110533425  1.0000
  Co  Co1       1.0  1.9216755650380452e-08  0.9999999520392695  9.129296800280651e-08  1.0000
  Br  Br1       1.0  0.24195372349799565  0.2419537580932693  0.7580462565394649  1.0000
  Br  Br2       1.0  0.7580462374891396  0.758046282592136  0.24195369585105403  1.0000
  Br  Br3       1.0  0.7580462231233387  0.24195376124813875  0.2419537542322547  1.0000
  Br  Br4       1.0  0.2419538009773244  0.7580462160605869  0.758046234652486  1.0000
  Br  Br5       1.0  0.24195374790883933  0.7580463080430592  0.24195371209066535  1.0000
  Br  Br6       1.0  0.7580462652624087  0.24195367783008262  0.7580462542009988  1.0000
