data_image0
_chemical_formula_structural       Au2CrCl6
_chemical_formula_sum              "Au2 Cr1 Cl6"
_cell_length_a       7.189402137152498
_cell_length_b       7.1894041491919305
_cell_length_c       7.189404094150066
_cell_angle_alpha    60.00000338391849
_cell_angle_beta     59.99999735125672
_cell_angle_gamma    60.00000634521665

_space_group_name_H-M_alt    "P 1"
_space_group_IT_number       1

loop_
  _space_group_symop_operation_xyz
  'x, y, z'

loop_
  _atom_site_type_symbol
  _atom_site_label
  _atom_site_symmetry_multiplicity
  _atom_site_fract_x
  _atom_site_fract_y
  _atom_site_fract_z
  _atom_site_occupancy
  Au  Au1       1.0  0.2500001063310928  0.24999966774640073  0.2500003677505825  1.0000
  Au  Au2       1.0  0.7499999642391852  0.7499998073107421  0.7500001427879536  1.0000
  Cr  Cr1       1.0  0.9999999387059301  1.260620640377214e-07  0.999999905023889  1.0000
  Cl  Cl1       1.0  0.22707148140758576  0.2270710552302886  0.7729288600491748  1.0000
  Cl  Cl2       1.0  0.7729285450402057  0.7729290773938393  0.22707109757147764  1.0000
  Cl  Cl3       1.0  0.7729289858520332  0.22707144509251623  0.22707101422758857  1.0000
  Cl  Cl4       1.0  0.22707086507267646  0.772928823814923  0.7729288461743311  1.0000
  Cl  Cl5       1.0  0.22707091679056246  0.7729287613353532  0.22707128970338777  1.0000
  Cl  Cl6       1.0  0.7729292683397319  0.22707127589045395  0.7729284484988375  1.0000
