data_image0
_chemical_formula_structural       Au2CF6
_chemical_formula_sum              "Au2 C1 F6"
_cell_length_a       5.287147235060043
_cell_length_b       5.287146949119523
_cell_length_c       5.287147148738559
_cell_angle_alpha    60.00000147853122
_cell_angle_beta     60.00000119647397
_cell_angle_gamma    60.00000130176393

_space_group_name_H-M_alt    "P 1"
_space_group_IT_number       1

loop_
  _space_group_symop_operation_xyz
  'x, y, z'

loop_
  _atom_site_type_symbol
  _atom_site_label
  _atom_site_symmetry_multiplicity
  _atom_site_fract_x
  _atom_site_fract_y
  _atom_site_fract_z
  _atom_site_occupancy
  Au  Au1       1.0  0.2500001455215059  0.25000009515326926  0.2499998095744421  1.0000
  Au  Au2       1.0  0.7500000146674178  0.7499998476494374  0.7500001460666847  1.0000
  C   C1        1.0  2.4421182228883386e-08  0.9999999791518902  9.656518047620787e-08  1.0000
  F   F1        1.0  0.21380846810871623  0.21380850513241725  0.7861915096289688  1.0000
  F   F2        1.0  0.7861914986752233  0.7861915395943948  0.21380850120949454  1.0000
  F   F3        1.0  0.7861915336011268  0.21380846809025944  0.21380849317780035  1.0000
  F   F4        1.0  0.2138084891297592  0.7861914677630732  0.7861915006222064  1.0000
  F   F5        1.0  0.21380843575029038  0.7861915117129676  0.21380847061816136  1.0000
  F   F6        1.0  0.7861914106272523  0.2138085862923503  0.7861914546273601  1.0000
