data_image0
_chemical_formula_structural       Au2CoBr6
_chemical_formula_sum              "Au2 Co1 Br6"
_cell_length_a       7.151257063452056
_cell_length_b       7.15125694307945
_cell_length_c       7.151257274102083
_cell_angle_alpha    60.00000004992786
_cell_angle_beta     59.99999957024019
_cell_angle_gamma    59.999999973365625

_space_group_name_H-M_alt    "P 1"
_space_group_IT_number       1

loop_
  _space_group_symop_operation_xyz
  'x, y, z'

loop_
  _atom_site_type_symbol
  _atom_site_label
  _atom_site_symmetry_multiplicity
  _atom_site_fract_x
  _atom_site_fract_y
  _atom_site_fract_z
  _atom_site_occupancy
  Au  Au1       1.0  0.2500000002512935  0.2500000308664365  0.24999999306499515  1.0000
  Au  Au2       1.0  0.7499999636834167  0.749999976140549  0.7500000084155086  1.0000
  Co  Co1       1.0  0.9999999788132413  1.0275771649252434e-08  0.9999999313426516  1.0000
  Br  Br1       1.0  0.24188731423404541  0.24188732120792727  0.7581126492342416  1.0000
  Br  Br2       1.0  0.7581127191151819  0.7581127149137477  0.24188725683592793  1.0000
  Br  Br3       1.0  0.7581126666370182  0.24188734626117672  0.24188729527046152  1.0000
  Br  Br4       1.0  0.24188728661332665  0.7581127412393642  0.7581127398248683  1.0000
  Br  Br5       1.0  0.2418873398620533  0.7581126165900814  0.24188736808956537  1.0000
  Br  Br6       1.0  0.7581127183791093  0.24188724313082796  0.7581127703508341  1.0000
