data_image0
_chemical_formula_structural       Au2CI6
_chemical_formula_sum              "Au2 C1 I6"
_cell_length_a       7.362026515531518
_cell_length_b       7.362026832602821
_cell_length_c       7.362026817485788
_cell_angle_alpha    59.99999871510595
_cell_angle_beta     60.00000102336331
_cell_angle_gamma    59.999999492105104

_space_group_name_H-M_alt    "P 1"
_space_group_IT_number       1

loop_
  _space_group_symop_operation_xyz
  'x, y, z'

loop_
  _atom_site_type_symbol
  _atom_site_label
  _atom_site_symmetry_multiplicity
  _atom_site_fract_x
  _atom_site_fract_y
  _atom_site_fract_z
  _atom_site_occupancy
  Au  Au1       1.0  0.24999998527864073  0.25000000993718485  0.24999998005402924  1.0000
  Au  Au2       1.0  0.7499999899776805  0.7500000214935661  0.749999972074816  1.0000
  C   C1        1.0  9.241382922845115e-08  0.9999998968569666  0.9999996929506383  1.0000
  I   I1        1.0  0.25326050872298855  0.2532604557190665  0.7467395065035581  1.0000
  I   I2        1.0  0.7467395360373803  0.7467395224765648  0.2532604931820103  1.0000
  I   I3        1.0  0.7467393919998038  0.2532605939507308  0.25326067386370793  1.0000
  I   I4        1.0  0.25326040041052217  0.7467395672406139  0.7467395995636195  1.0000
  I   I5        1.0  0.2532604940331672  0.7467395143665657  0.25326045991049484  1.0000
  I   I6        1.0  0.7467396251268995  0.25326040061236094  0.7467396170411963  1.0000
