data_image0
_chemical_formula_structural       Au2CrI6
_chemical_formula_sum              "Au2 Cr1 I6"
_cell_length_a       7.6306637145396685
_cell_length_b       7.630664021172519
_cell_length_c       7.6306641462577725
_cell_angle_alpha    59.99999764045064
_cell_angle_beta     59.99999833876686
_cell_angle_gamma    60.00000266007251

_space_group_name_H-M_alt    "P 1"
_space_group_IT_number       1

loop_
  _space_group_symop_operation_xyz
  'x, y, z'

loop_
  _atom_site_type_symbol
  _atom_site_label
  _atom_site_symmetry_multiplicity
  _atom_site_fract_x
  _atom_site_fract_y
  _atom_site_fract_z
  _atom_site_occupancy
  Au  Au1       1.0  0.2499999348308844  0.24999999417212912  0.25000005039928813  1.0000
  Au  Au2       1.0  0.7499999535085108  0.7499999712811796  0.7500000705130228  1.0000
  Cr  Cr1       1.0  6.231811120684114e-08  0.9999999855547266  2.0620646596601555e-08  1.0000
  I   I1        1.0  0.24531168210917123  0.24531170352855838  0.754688261445739  1.0000
  I   I2        1.0  0.7546884081463965  0.7546883598316247  0.24531155360531925  1.0000
  I   I3        1.0  0.7546882817678302  0.24531169039086134  0.24531175408331593  1.0000
  I   I4        1.0  0.245311714622473  0.7546882959278487  0.7546883010603382  1.0000
  I   I5        1.0  0.24531167519745284  0.7546883020113607  0.2453116769171726  1.0000
  I   I6        1.0  0.7546882848751528  0.24531168430734962  0.754688319065717  1.0000
