data_image0
_chemical_formula_structural       Au2CuCl6
_chemical_formula_sum              "Au2 Cu1 Cl6"
_cell_length_a       6.683361528338388
_cell_length_b       6.683361416198949
_cell_length_c       6.683361338721044
_cell_angle_alpha    60.000000041087176
_cell_angle_beta     60.00000152427305
_cell_angle_gamma    60.000000118059766

_space_group_name_H-M_alt    "P 1"
_space_group_IT_number       1

loop_
  _space_group_symop_operation_xyz
  'x, y, z'

loop_
  _atom_site_type_symbol
  _atom_site_label
  _atom_site_symmetry_multiplicity
  _atom_site_fract_x
  _atom_site_fract_y
  _atom_site_fract_z
  _atom_site_occupancy
  Au  Au1       1.0  0.25000019901754555  0.2499999474257168  0.2499997762122801  1.0000
  Au  Au2       1.0  0.7500001659389616  0.7500000108697497  0.7499996544102766  1.0000
  Cu  Cu1       1.0  1.4712010810583426e-07  0.9999998955458883  4.001337908122027e-08  1.0000
  Cl  Cl1       1.0  0.24322021769185057  0.2432203392640757  0.7567795485953637  1.0000
  Cl  Cl2       1.0  0.7567796861030769  0.7567795512278411  0.24322063428826038  1.0000
  Cl  Cl3       1.0  0.7567798105695449  0.24322029755282729  0.24322046574004863  1.0000
  Cl  Cl4       1.0  0.24322013590936198  0.7567797706943312  0.756779740090489  1.0000
  Cl  Cl5       1.0  0.24322040087167937  0.7567797390063769  0.24322019040059567  1.0000
  Cl  Cl6       1.0  0.7567792433751966  0.24322047401051566  0.7567799460320332  1.0000
