data_image0
_chemical_formula_structural       Au2CuBr6
_chemical_formula_sum              "Au2 Cu1 Br6"
_cell_length_a       7.058960691122839
_cell_length_b       7.058960768415237
_cell_length_c       7.058960567454244
_cell_angle_alpha    60.00000059117742
_cell_angle_beta     59.99999999100479
_cell_angle_gamma    60.00000018589035

_space_group_name_H-M_alt    "P 1"
_space_group_IT_number       1

loop_
  _space_group_symop_operation_xyz
  'x, y, z'

loop_
  _atom_site_type_symbol
  _atom_site_label
  _atom_site_symmetry_multiplicity
  _atom_site_fract_x
  _atom_site_fract_y
  _atom_site_fract_z
  _atom_site_occupancy
  Au  Au1       1.0  0.2499999329015717  0.25000000990390486  0.25000001921175913  1.0000
  Au  Au2       1.0  0.7499999448687198  0.7500000279766926  0.7499999627545587  1.0000
  Cu  Cu1       1.0  5.667152982763593e-09  1.735021492824896e-08  0.9999999601585327  1.0000
  Br  Br1       1.0  0.24632042328968626  0.24632040322580712  0.7536795896046191  1.0000
  Br  Br2       1.0  0.7536795889304184  0.7536795895442312  0.246320421357308  1.0000
  Br  Br3       1.0  0.7536796155930628  0.24632040547590026  0.24632040893627785  1.0000
  Br  Br4       1.0  0.24632042164306436  0.753679590764181  0.7536796161153996  1.0000
  Br  Br5       1.0  0.24632044833152475  0.7536795638918179  0.24632041568817142  1.0000
  Br  Br6       1.0  0.7536796200017126  0.24632040285289789  0.7536795986461595  1.0000
