data_image0
_chemical_formula_structural       Au2CF6
_chemical_formula_sum              "Au2 C1 F6"
_cell_length_a       5.284088405451326
_cell_length_b       5.284088510086234
_cell_length_c       5.284088660675106
_cell_angle_alpha    60.00000101682624
_cell_angle_beta     59.99999894279708
_cell_angle_gamma    59.99999451154586

_space_group_name_H-M_alt    "P 1"
_space_group_IT_number       1

loop_
  _space_group_symop_operation_xyz
  'x, y, z'

loop_
  _atom_site_type_symbol
  _atom_site_label
  _atom_site_symmetry_multiplicity
  _atom_site_fract_x
  _atom_site_fract_y
  _atom_site_fract_z
  _atom_site_occupancy
  Au  Au1       1.0  0.24999992975800425  0.2500000246627557  0.250000290503262  1.0000
  Au  Au2       1.0  0.7499998739681769  0.7500001018018156  0.7499998500942295  1.0000
  C   C1        1.0  1.4978939416975662e-07  0.9999999374194483  0.9999999412557871  1.0000
  F   F1        1.0  0.2139429296398437  0.21394299765674213  0.7860569588899313  1.0000
  F   F2        1.0  0.7860568045829632  0.7860568390831016  0.21394310205267916  1.0000
  F   F3        1.0  0.7860574691914258  0.2139426877827657  0.21394267985195153  1.0000
  F   F4        1.0  0.21394268198804892  0.7860574386817756  0.7860570050402953  1.0000
  F   F5        1.0  0.21394277933497036  0.7860572880736143  0.21394308466273365  1.0000
  F   F6        1.0  0.7860573793053833  0.21394282911974366  0.7860570174789283  1.0000
