data_image0
_chemical_formula_structural       Au2CuI6
_chemical_formula_sum              "Au2 Cu1 I6"
_cell_length_a       7.401084515703436
_cell_length_b       7.401084492621374
_cell_length_c       7.401084494224531
_cell_angle_alpha    59.99999989516881
_cell_angle_beta     59.99999996784977
_cell_angle_gamma    59.99999977698056

_space_group_name_H-M_alt    "P 1"
_space_group_IT_number       1

loop_
  _space_group_symop_operation_xyz
  'x, y, z'

loop_
  _atom_site_type_symbol
  _atom_site_label
  _atom_site_symmetry_multiplicity
  _atom_site_fract_x
  _atom_site_fract_y
  _atom_site_fract_z
  _atom_site_occupancy
  Au  Au1       1.0  0.24999999717691349  0.24999999723606453  0.2500000108639539  1.0000
  Au  Au2       1.0  0.7500000010810866  0.749999981779285  0.7500000017046164  1.0000
  Cu  Cu1       1.0  3.1987577629986134e-09  2.3167453696835256e-08  0.9999999895192009  1.0000
  I   I1        1.0  0.2541514701434902  0.25415146892768786  0.7458485321621794  1.0000
  I   I2        1.0  0.7458485260811292  0.7458485349099332  0.2541514690119452  1.0000
  I   I3        1.0  0.745848526695028  0.25415146513764125  0.25415144602720036  1.0000
  I   I4        1.0  0.25415148210565186  0.7458485337355255  0.745848549989968  1.0000
  I   I5        1.0  0.25415147447529474  0.7458485257677178  0.25415143788185546  1.0000
  I   I6        1.0  0.7458485239557486  0.2541514714506311  0.7458485573917732  1.0000
