data_image0
_chemical_formula_structural       Au2CCl6
_chemical_formula_sum              "Au2 C1 Cl6"
_cell_length_a       12.565463123756858
_cell_length_b       13.175793767476556
_cell_length_c       12.96028202652624
_cell_angle_alpha    59.74061480375417
_cell_angle_beta     63.31802206898543
_cell_angle_gamma    62.11502226079772

_space_group_name_H-M_alt    "P 1"
_space_group_IT_number       1

loop_
  _space_group_symop_operation_xyz
  'x, y, z'

loop_
  _atom_site_type_symbol
  _atom_site_label
  _atom_site_symmetry_multiplicity
  _atom_site_fract_x
  _atom_site_fract_y
  _atom_site_fract_z
  _atom_site_occupancy
  Au  Au1       1.0  0.3213623214875627  0.26600959330291746  0.14476588862322395  1.0000
  Au  Au2       1.0  0.8225833188007001  0.01606061518905766  0.432658040029168  1.0000
  C   C1        1.0  0.04218221737834966  0.9371631409684165  0.9114263382108633  1.0000
  Cl  Cl1       1.0  0.04927730096122854  0.06868447610676935  0.9126647967638968  1.0000
  Cl  Cl2       1.0  0.8360858930810333  0.8149326712306333  0.5346858254807715  1.0000
  Cl  Cl3       1.0  0.8090766159983103  0.2171597830601713  0.33075613762799294  1.0000
  Cl  Cl4       1.0  0.0807173009396687  0.9537495131375512  0.7544849809315354  1.0000
  Cl  Cl5       1.0  0.1512096967628685  0.8006318790750508  0.9863889236486603  1.0000
  Cl  Cl6       1.0  0.8875134009431166  0.9255944389221243  0.9921857172197397  1.0000
