data_image0
_chemical_formula_structural       Au2FeBr6
_chemical_formula_sum              "Au2 Fe1 Br6"
_cell_length_a       7.698411295659283
_cell_length_b       7.698406690680499
_cell_length_c       7.698409053599427
_cell_angle_alpha    59.999996376516485
_cell_angle_beta     59.99999559154157
_cell_angle_gamma    59.99999852512072

_space_group_name_H-M_alt    "P 1"
_space_group_IT_number       1

loop_
  _space_group_symop_operation_xyz
  'x, y, z'

loop_
  _atom_site_type_symbol
  _atom_site_label
  _atom_site_symmetry_multiplicity
  _atom_site_fract_x
  _atom_site_fract_y
  _atom_site_fract_z
  _atom_site_occupancy
  Au  Au1       1.0  0.2500002454036327  0.2500000441607294  0.24999973232591724  1.0000
  Au  Au2       1.0  0.7499998518945378  0.7500000990731188  0.7500003546862505  1.0000
  Fe  Fe1       1.0  0.9999998629613058  2.8636315168339116e-08  9.446926577944377e-08  1.0000
  Br  Br1       1.0  0.20618170449106477  0.20618197977719194  0.7938180326816945  1.0000
  Br  Br2       1.0  0.7938184543147073  0.7938175334574101  0.2061818826378978  1.0000
  Br  Br3       1.0  0.793818085653948  0.206182322528149  0.20618197743884706  1.0000
  Br  Br4       1.0  0.20618182951695443  0.7938178541147101  0.7938180670251984  1.0000
  Br  Br5       1.0  0.20618206252590696  0.7938177285245797  0.20618220200680734  1.0000
  Br  Br6       1.0  0.7938180780153739  0.20618224448217376  0.7938175964765545  1.0000
