data_image0
_chemical_formula_structural       Au2FeBr6
_chemical_formula_sum              "Au2 Fe1 Br6"
_cell_length_a       7.718809409504868
_cell_length_b       7.718809934529622
_cell_length_c       7.718809574148559
_cell_angle_alpha    59.999999833350635
_cell_angle_beta     59.99999845896593
_cell_angle_gamma    59.99999959614292

_space_group_name_H-M_alt    "P 1"
_space_group_IT_number       1

loop_
  _space_group_symop_operation_xyz
  'x, y, z'

loop_
  _atom_site_type_symbol
  _atom_site_label
  _atom_site_symmetry_multiplicity
  _atom_site_fract_x
  _atom_site_fract_y
  _atom_site_fract_z
  _atom_site_occupancy
  Au  Au1       1.0  0.25000008109413724  0.24999983357033556  0.2500000278711506  1.0000
  Au  Au2       1.0  0.7499999130282585  0.7500001100044543  0.7499999881420417  1.0000
  Fe  Fe1       1.0  1.9613359606745367e-08  1.745371800953132e-08  0.9999999918307533  1.0000
  Br  Br1       1.0  0.2056186578840288  0.20561861234234044  0.7943813396635486  1.0000
  Br  Br2       1.0  0.7943814202374773  0.7943813978739189  0.20561858807398684  1.0000
  Br  Br3       1.0  0.7943813594330356  0.20561861553613212  0.20561860284867323  1.0000
  Br  Br4       1.0  0.20561861581486046  0.7943814026136368  0.794381384018742  1.0000
  Br  Br5       1.0  0.2056185674319001  0.7943814010685368  0.20561867085015093  1.0000
  Br  Br6       1.0  0.7943813814176732  0.20561861549452962  0.7943814012642878  1.0000
