data_image0
_chemical_formula_structural       Au2FeCl6
_chemical_formula_sum              "Au2 Fe1 Cl6"
_cell_length_a       7.37584362981523
_cell_length_b       7.375844978138401
_cell_length_c       7.375843964927413
_cell_angle_alpha    60.0000011604535
_cell_angle_beta     59.99999829668556
_cell_angle_gamma    59.99999891531144

_space_group_name_H-M_alt    "P 1"
_space_group_IT_number       1

loop_
  _space_group_symop_operation_xyz
  'x, y, z'

loop_
  _atom_site_type_symbol
  _atom_site_label
  _atom_site_symmetry_multiplicity
  _atom_site_fract_x
  _atom_site_fract_y
  _atom_site_fract_z
  _atom_site_occupancy
  Au  Au1       1.0  0.24999991881230715  0.24999988504399412  0.2500002482363547  1.0000
  Au  Au2       1.0  0.7499997007319043  0.7500002778122838  0.7499997928233185  1.0000
  Fe  Fe1       1.0  2.5523087218962862e-08  0.9999999750927895  0.9999999549514195  1.0000
  Cl  Cl1       1.0  0.21147090265768587  0.21147115761228508  0.7885287126502101  1.0000
  Cl  Cl2       1.0  0.7885292673162047  0.7885289836577334  0.2114705989562234  1.0000
  Cl  Cl3       1.0  0.7885291240948088  0.21147073781169723  0.21147114629008307  1.0000
  Cl  Cl4       1.0  0.2114711496700889  0.788528913616469  0.7885292016351129  1.0000
  Cl  Cl5       1.0  0.21147088704502323  0.7885290897391043  0.2114711224207563  1.0000
  Cl  Cl6       1.0  0.7885289871574934  0.21147101832127876  0.7885292972970127  1.0000
