data_image0
_chemical_formula_structural       Au2FeF6
_chemical_formula_sum              "Au2 Fe1 F6"
_cell_length_a       5.432078741485403
_cell_length_b       5.432078521783014
_cell_length_c       5.432078501268061
_cell_angle_alpha    60.00000052042292
_cell_angle_beta     60.00000027237818
_cell_angle_gamma    59.99999973382243

_space_group_name_H-M_alt    "P 1"
_space_group_IT_number       1

loop_
  _space_group_symop_operation_xyz
  'x, y, z'

loop_
  _atom_site_type_symbol
  _atom_site_label
  _atom_site_symmetry_multiplicity
  _atom_site_fract_x
  _atom_site_fract_y
  _atom_site_fract_z
  _atom_site_occupancy
  Au  Au1       1.0  0.2500000397356333  0.24999994252571714  0.24999985445456363  1.0000
  Au  Au2       1.0  0.7499999199871624  0.7500000936261332  0.749999820813793  1.0000
  Fe  Fe1       1.0  0.9999999835101306  0.9999999729441718  4.0182008488619106e-08  1.0000
  F   F1        1.0  0.24871217318147334  0.2487120805639393  0.7512879652862889  1.0000
  F   F2        1.0  0.7512878547149945  0.751287910494868  0.24871216971623772  1.0000
  F   F3        1.0  0.7512878541389391  0.2487121329721917  0.2487121828924471  1.0000
  F   F4        1.0  0.24871220416214995  0.7512878242668298  0.7512879298857539  1.0000
  F   F5        1.0  0.24871207659359526  0.7512879189574455  0.2487121994236624  1.0000
  F   F6        1.0  0.7512878907515242  0.2487121262130176  0.7512878467529134  1.0000
