data_image0
_chemical_formula_structural       Au2FeCl6
_chemical_formula_sum              "Au2 Fe1 Cl6"
_cell_length_a       7.374990499985039
_cell_length_b       7.374991197517075
_cell_length_c       7.374991085603722
_cell_angle_alpha    59.999997709859144
_cell_angle_beta     60.00000314527884
_cell_angle_gamma    60.00000006150348

_space_group_name_H-M_alt    "P 1"
_space_group_IT_number       1

loop_
  _space_group_symop_operation_xyz
  'x, y, z'

loop_
  _atom_site_type_symbol
  _atom_site_label
  _atom_site_symmetry_multiplicity
  _atom_site_fract_x
  _atom_site_fract_y
  _atom_site_fract_z
  _atom_site_occupancy
  Au  Au1       1.0  0.25000037000975256  0.24999894579812418  0.25000086260117893  1.0000
  Au  Au2       1.0  0.7499999104937735  0.7500008728299651  0.7499989556133807  1.0000
  Fe  Fe1       1.0  2.9826940065256166e-08  2.3249418638758454e-08  3.854664589130846e-08  1.0000
  Cl  Cl1       1.0  0.21157991441028787  0.21158000617419156  0.788420103373913  1.0000
  Cl  Cl2       1.0  0.7884198420375459  0.7884201445884967  0.21158004266585026  1.0000
  Cl  Cl3       1.0  0.7884198488785261  0.2115797467974702  0.2115801213514848  1.0000
  Cl  Cl4       1.0  0.2115801119051757  0.7884201432395582  0.7884199050863998  1.0000
  Cl  Cl5       1.0  0.21157977016344984  0.788420278701608  0.21158003233738723  1.0000
  Cl  Cl6       1.0  0.7884201885279989  0.21157988534646877  0.7884198866157047  1.0000
