data_image0
_chemical_formula_structural       Au2FeI6
_chemical_formula_sum              "Au2 Fe1 I6"
_cell_length_a       7.609867666159227
_cell_length_b       7.609867624115713
_cell_length_c       7.609867454731413
_cell_angle_alpha    60.000000869271695
_cell_angle_beta     59.999999492783836
_cell_angle_gamma    59.99999821004162

_space_group_name_H-M_alt    "P 1"
_space_group_IT_number       1

loop_
  _space_group_symop_operation_xyz
  'x, y, z'

loop_
  _atom_site_type_symbol
  _atom_site_label
  _atom_site_symmetry_multiplicity
  _atom_site_fract_x
  _atom_site_fract_y
  _atom_site_fract_z
  _atom_site_occupancy
  Au  Au1       1.0  0.2500000052865871  0.2499999964671088  0.2499999996539273  1.0000
  Au  Au2       1.0  0.7500000158597607  0.7499999894013266  0.7500000291856989  1.0000
  Fe  Fe1       1.0  0.9999999627388652  7.081433911336578e-08  0.9999999385445649  1.0000
  I   I1        1.0  0.22456783637922317  0.22456797393199812  0.7754320591755796  1.0000
  I   I2        1.0  0.7754321514453849  0.7754320618283579  0.22456786019453961  1.0000
  I   I3        1.0  0.7754322153096187  0.2245678417515  0.22456776859737826  1.0000
  I   I4        1.0  0.22456773950096562  0.7754321746958556  0.7754322439545035  1.0000
  I   I5        1.0  0.2245678793337673  0.7754320566280056  0.22456791185528346  1.0000
  I   I6        1.0  0.7754322037198553  0.22456783911308856  0.7754321692027917  1.0000
