data_image0
_chemical_formula_structural       Au2FeF6
_chemical_formula_sum              "Au2 Fe1 F6"
_cell_length_a       5.431646408083509
_cell_length_b       5.431645854702351
_cell_length_c       5.431646095861975
_cell_angle_alpha    59.99999934982223
_cell_angle_beta     60.00000051748001
_cell_angle_gamma    59.99999868322832

_space_group_name_H-M_alt    "P 1"
_space_group_IT_number       1

loop_
  _space_group_symop_operation_xyz
  'x, y, z'

loop_
  _atom_site_type_symbol
  _atom_site_label
  _atom_site_symmetry_multiplicity
  _atom_site_fract_x
  _atom_site_fract_y
  _atom_site_fract_z
  _atom_site_occupancy
  Au  Au1       1.0  0.2500001094243922  0.24999984283397103  0.25000001397802313  1.0000
  Au  Au2       1.0  0.7500000005785392  0.7500000651519294  0.7499999558670118  1.0000
  Fe  Fe1       1.0  0.9999999912607114  0.9999999751968478  1.49301578462385e-08  1.0000
  F   F1        1.0  0.24874237010318212  0.24874238663858234  0.7512576820829928  1.0000
  F   F2        1.0  0.7512575220913495  0.7512576836952222  0.24874237624735587  1.0000
  F   F3        1.0  0.7512575891075941  0.24874237292294063  0.24874241381324436  1.0000
  F   F4        1.0  0.2487424194317032  0.7512576162369113  0.7512575624945085  1.0000
  F   F5        1.0  0.24874234795794115  0.7512576157104828  0.24874238085562378  1.0000
  F   F6        1.0  0.7512576269099592  0.24874242982016964  0.7512576025130531  1.0000
