data_image0
_chemical_formula_structural       Au2GeBr6
_chemical_formula_sum              "Au2 Ge1 Br6"
_cell_length_a       7.425492035863661
_cell_length_b       7.425492110610442
_cell_length_c       7.425492130003116
_cell_angle_alpha    60.00000048689741
_cell_angle_beta     59.999999318736585
_cell_angle_gamma    60.00000007439555

_space_group_name_H-M_alt    "P 1"
_space_group_IT_number       1

loop_
  _space_group_symop_operation_xyz
  'x, y, z'

loop_
  _atom_site_type_symbol
  _atom_site_label
  _atom_site_symmetry_multiplicity
  _atom_site_fract_x
  _atom_site_fract_y
  _atom_site_fract_z
  _atom_site_occupancy
  Au  Au1       1.0  0.2499999714039528  0.2500000063631674  0.25000000833781233  1.0000
  Au  Au2       1.0  0.7499999540771604  0.7500000487783194  0.7500000373713004  1.0000
  Ge  Ge1       1.0  0.9999998789271906  0.9999999340248504  0.9999999184514082  1.0000
  Br  Br1       1.0  0.23081213705859252  0.23081211462540405  0.7691877804309406  1.0000
  Br  Br2       1.0  0.7691880318106104  0.7691879801011696  0.23081191505121015  1.0000
  Br  Br3       1.0  0.7691878650596319  0.23081212774844223  0.2308121169365348  1.0000
  Br  Br4       1.0  0.23081202181205487  0.769187940588075  0.7691880546035913  1.0000
  Br  Br5       1.0  0.23081216176870956  0.7691878095542662  0.2308121270370786  1.0000
  Br  Br6       1.0  0.7691880246346795  0.23081201797295836  0.7691880366892345  1.0000
