data_image0
_chemical_formula_structural       Au2GeCl6
_chemical_formula_sum              "Au2 Ge1 Cl6"
_cell_length_a       7.48140320245969
_cell_length_b       7.4814043415361
_cell_length_c       7.4814034895500425
_cell_angle_alpha    60.00000175558757
_cell_angle_beta     59.99999933228287
_cell_angle_gamma    59.999998893056585

_space_group_name_H-M_alt    "P 1"
_space_group_IT_number       1

loop_
  _space_group_symop_operation_xyz
  'x, y, z'

loop_
  _atom_site_type_symbol
  _atom_site_label
  _atom_site_symmetry_multiplicity
  _atom_site_fract_x
  _atom_site_fract_y
  _atom_site_fract_z
  _atom_site_occupancy
  Au  Au1       1.0  0.25000021695995955  0.24999987977979726  0.25000006194315316  1.0000
  Au  Au2       1.0  0.749999803698186  0.7500003056196343  0.7499998899890149  1.0000
  Ge  Ge1       1.0  0.9999999950594726  0.999999908325081  1.913290175295423e-07  1.0000
  Cl  Cl1       1.0  0.21300363110566456  0.21300373165167394  0.7869963351249727  1.0000
  Cl  Cl2       1.0  0.786996336658754  0.7869962327457337  0.21300366286303715  1.0000
  Cl  Cl3       1.0  0.7869963520105497  0.21300360386374514  0.21300349260126641  1.0000
  Cl  Cl4       1.0  0.21300365624142334  0.786996368718927  0.7869962377804713  1.0000
  Cl  Cl5       1.0  0.21300389680309698  0.7869960949917779  0.2130037386543371  1.0000
  Cl  Cl6       1.0  0.7869961507835717  0.21300383830163466  0.7869963084901639  1.0000
