data_image0
_chemical_formula_structural       Au2GeF6
_chemical_formula_sum              "Au2 Ge1 F6"
_cell_length_a       5.749025652307933
_cell_length_b       5.749025033555204
_cell_length_c       5.749024953425786
_cell_angle_alpha    60.0000037322129
_cell_angle_beta     60.00000281709136
_cell_angle_gamma    60.00000338162296

_space_group_name_H-M_alt    "P 1"
_space_group_IT_number       1

loop_
  _space_group_symop_operation_xyz
  'x, y, z'

loop_
  _atom_site_type_symbol
  _atom_site_label
  _atom_site_symmetry_multiplicity
  _atom_site_fract_x
  _atom_site_fract_y
  _atom_site_fract_z
  _atom_site_occupancy
  Au  Au1       1.0  0.250000077330617  0.2499998428202129  0.25000023052000175  1.0000
  Au  Au2       1.0  0.7499999246018472  0.7499998842294296  0.7500001681555349  1.0000
  Ge  Ge1       1.0  4.7960690096076534e-08  1.2782113149945885e-08  0.9999999278823888  1.0000
  F   F1        1.0  0.22758637789679487  0.22758656562988042  0.772413496407293  1.0000
  F   F2        1.0  0.7724135546042353  0.7724135022761032  0.22758645867750443  1.0000
  F   F3        1.0  0.7724134781353498  0.22758646948664113  0.22758649273207826  1.0000
  F   F4        1.0  0.22758650161625213  0.7724136133318094  0.7724134295317744  1.0000
  F   F5        1.0  0.22758649807749767  0.7724135714757752  0.22758641018727474  1.0000
  F   F6        1.0  0.7724134873341392  0.22758653051584507  0.7724134892234237  1.0000
