data_image0
_chemical_formula_structural       Au2GeBr6
_chemical_formula_sum              "Au2 Ge1 Br6"
_cell_length_a       7.420679398055573
_cell_length_b       7.420679171266637
_cell_length_c       7.420679271480458
_cell_angle_alpha    59.99999927255685
_cell_angle_beta     59.99999846961614
_cell_angle_gamma    59.99999929120207

_space_group_name_H-M_alt    "P 1"
_space_group_IT_number       1

loop_
  _space_group_symop_operation_xyz
  'x, y, z'

loop_
  _atom_site_type_symbol
  _atom_site_label
  _atom_site_symmetry_multiplicity
  _atom_site_fract_x
  _atom_site_fract_y
  _atom_site_fract_z
  _atom_site_occupancy
  Au  Au1       1.0  0.2499999449226976  0.2500000382206084  0.24999998430069856  1.0000
  Au  Au2       1.0  0.7500000049285305  0.7500001130113785  0.7500000680897558  1.0000
  Ge  Ge1       1.0  0.9999999809659386  0.9999999917477576  4.3290033899345695e-08  1.0000
  Br  Br1       1.0  0.23098091196667125  0.23098082486558613  0.7690190800723904  1.0000
  Br  Br2       1.0  0.7690191126105005  0.7690191068567499  0.23098088973758102  1.0000
  Br  Br3       1.0  0.7690191342503917  0.23098094495877075  0.23098087704464637  1.0000
  Br  Br4       1.0  0.23098087547274399  0.7690190313256744  0.769019076563703  1.0000
  Br  Br5       1.0  0.23098093151444843  0.7690190419828078  0.23098093592879518  1.0000
  Br  Br6       1.0  0.7690190911291018  0.23098090954491016  0.7690190572873485  1.0000
