data_image0
_chemical_formula_structural       Au2GeI6
_chemical_formula_sum              "Au2 Ge1 I6"
_cell_length_a       7.710320543022229
_cell_length_b       7.710320396945767
_cell_length_c       7.710320518109199
_cell_angle_alpha    59.9999986630841
_cell_angle_beta     60.00000058873793
_cell_angle_gamma    60.00000079358513

_space_group_name_H-M_alt    "P 1"
_space_group_IT_number       1

loop_
  _space_group_symop_operation_xyz
  'x, y, z'

loop_
  _atom_site_type_symbol
  _atom_site_label
  _atom_site_symmetry_multiplicity
  _atom_site_fract_x
  _atom_site_fract_y
  _atom_site_fract_z
  _atom_site_occupancy
  Au  Au1       1.0  0.25000004444889756  0.24999994334302503  0.24999998484186411  1.0000
  Au  Au2       1.0  0.7499999459618568  0.7499999968161902  0.7500000387513387  1.0000
  Ge  Ge1       1.0  0.9999999850992204  2.223828257610864e-08  0.9999999742828782  1.0000
  I   I1        1.0  0.26216341065981064  0.26216336526495676  0.7378366064307953  1.0000
  I   I2        1.0  0.737836596450361  0.7378366416091063  0.26216339361275576  1.0000
  I   I3        1.0  0.7378365781183952  0.26216342618738947  0.2621634104357981  1.0000
  I   I4        1.0  0.26216344721997026  0.737836593394264  0.7378365741398609  1.0000
  I   I5        1.0  0.2621633972411556  0.7378366240815619  0.2621633726154815  1.0000
  I   I6        1.0  0.7378366004447555  0.26216337961560343  0.73783665188613  1.0000
