data_image0
_chemical_formula_structural       Au2GeI6
_chemical_formula_sum              "Au2 Ge1 I6"
_cell_length_a       7.712190635661916
_cell_length_b       7.712190726034956
_cell_length_c       7.712190767717801
_cell_angle_alpha    59.99999993842054
_cell_angle_beta     59.99999975697108
_cell_angle_gamma    60.000000881679014

_space_group_name_H-M_alt    "P 1"
_space_group_IT_number       1

loop_
  _space_group_symop_operation_xyz
  'x, y, z'

loop_
  _atom_site_type_symbol
  _atom_site_label
  _atom_site_symmetry_multiplicity
  _atom_site_fract_x
  _atom_site_fract_y
  _atom_site_fract_z
  _atom_site_occupancy
  Au  Au1       1.0  0.24999999534058664  0.25000000918876997  0.24999999288083313  1.0000
  Au  Au2       1.0  0.7499999900905329  0.7499999973931032  0.7500000331874659  1.0000
  Ge  Ge1       1.0  0.9999999688148323  1.2704507804705704e-08  2.73934078068432e-08  1.0000
  I   I1        1.0  0.2622097545175834  0.26220979593373134  0.7377902116802569  1.0000
  I   I2        1.0  0.7377902285392319  0.7377902042958877  0.2622097772585717  1.0000
  I   I3        1.0  0.7377901925229606  0.26220982064602405  0.2622097912207915  1.0000
  I   I4        1.0  0.2622098062016789  0.7377901954642303  0.7377901741639168  1.0000
  I   I5        1.0  0.2622098267796967  0.7377901874731737  0.2622097964210186  1.0000
  I   I6        1.0  0.7377902343308609  0.26220977623098535  0.7377901989832859  1.0000
