data_image0
_chemical_formula_structural       Au2HfI6
_chemical_formula_sum              "Au2 Hf1 I6"
_cell_length_a       8.223345079718017
_cell_length_b       8.223344955153005
_cell_length_c       8.223344809390992
_cell_angle_alpha    59.999998578411656
_cell_angle_beta     60.000001497727574
_cell_angle_gamma    59.99999859108582

_space_group_name_H-M_alt    "P 1"
_space_group_IT_number       1

loop_
  _space_group_symop_operation_xyz
  'x, y, z'

loop_
  _atom_site_type_symbol
  _atom_site_label
  _atom_site_symmetry_multiplicity
  _atom_site_fract_x
  _atom_site_fract_y
  _atom_site_fract_z
  _atom_site_occupancy
  Au  Au1       1.0  0.2500000297197719  0.2500000198100363  0.2499999570529507  1.0000
  Au  Au2       1.0  0.7500000194763101  0.750000007302813  0.7500000512369218  1.0000
  Hf  Hf1       1.0  0.9999999171829768  0.9999999493620625  0.9999999062088561  1.0000
  I   I1        1.0  0.2432924292206549  0.24329236589785838  0.7567075399907853  1.0000
  I   I2        1.0  0.7567075713111796  0.7567076850446157  0.24329229587676962  1.0000
  I   I3        1.0  0.7567075444130085  0.24329242318732233  0.2432924051988617  1.0000
  I   I4        1.0  0.24329233880581042  0.7567076679676306  0.7567076990524463  1.0000
  I   I5        1.0  0.24329241474557137  0.7567076149187968  0.2432923526232771  1.0000
  I   I6        1.0  0.7567077292700322  0.24329227517373497  0.7567077971559645  1.0000
