data_image0
_chemical_formula_structural       Au2HfCl6
_chemical_formula_sum              "Au2 Hf1 Cl6"
_cell_length_a       11.254330964282929
_cell_length_b       11.254322037947567
_cell_length_c       11.254328220615143
_cell_angle_alpha    59.99997492992349
_cell_angle_beta     59.99999852020173
_cell_angle_gamma    59.99998372822147

_space_group_name_H-M_alt    "P 1"
_space_group_IT_number       1

loop_
  _space_group_symop_operation_xyz
  'x, y, z'

loop_
  _atom_site_type_symbol
  _atom_site_label
  _atom_site_symmetry_multiplicity
  _atom_site_fract_x
  _atom_site_fract_y
  _atom_site_fract_z
  _atom_site_occupancy
  Au  Au1       1.0  0.249998903962261  0.2500017307246013  0.24999901358803658  1.0000
  Au  Au2       1.0  0.7499995805963239  0.7500004920465114  0.7499988912245074  1.0000
  Hf  Hf1       1.0  2.2097017708373154e-07  0.9999996572030294  2.6172502914030997e-07  1.0000
  Cl  Cl1       1.0  0.15552947527886576  0.15552938991817608  0.8444713610416362  1.0000
  Cl  Cl2       1.0  0.8444705890205301  0.8444702297723812  0.1555299396644854  1.0000
  Cl  Cl3       1.0  0.8444705178130054  0.15552931094959135  0.15552956268861357  1.0000
  Cl  Cl4       1.0  0.155529918460591  0.8444702793584453  0.8444706755089642  1.0000
  Cl  Cl5       1.0  0.1555295681851264  0.844469817582173  0.15552986993973658  1.0000
  Cl  Cl6       1.0  0.8444712758544067  0.15552879874718  0.8444704052367065  1.0000
