data_image0
_chemical_formula_structural       Au2HfF6
_chemical_formula_sum              "Au2 Hf1 F6"
_cell_length_a       5.880887870296052
_cell_length_b       5.8808882056676
_cell_length_c       5.8808878412018
_cell_angle_alpha    59.9999997501621
_cell_angle_beta     59.99999968259289
_cell_angle_gamma    59.999999745344766

_space_group_name_H-M_alt    "P 1"
_space_group_IT_number       1

loop_
  _space_group_symop_operation_xyz
  'x, y, z'

loop_
  _atom_site_type_symbol
  _atom_site_label
  _atom_site_symmetry_multiplicity
  _atom_site_fract_x
  _atom_site_fract_y
  _atom_site_fract_z
  _atom_site_occupancy
  Au  Au1       1.0  0.24999996196626362  0.2500000684523603  0.24999989441297782  1.0000
  Au  Au2       1.0  0.7499999200947554  0.7499999908508308  0.7500001865969952  1.0000
  Hf  Hf1       1.0  0.9999999997822248  0.9999999770915673  0.9999999843563281  1.0000
  F   F1        1.0  0.24239539872102855  0.2423953666166002  0.7576046273361154  1.0000
  F   F2        1.0  0.7576046677302007  0.7576045989702719  0.2423953471216662  1.0000
  F   F3        1.0  0.7576046253961934  0.24239542730203215  0.24239539368187785  1.0000
  F   F4        1.0  0.24239547385910531  0.7576045341196692  0.7576045868615366  1.0000
  F   F5        1.0  0.242395453447864  0.7576046028458071  0.24239534909309912  1.0000
  F   F6        1.0  0.7576045165137677  0.24239544604446073  0.7576046064514297  1.0000
