data_image0
_chemical_formula_structural       Au2HfBr6
_chemical_formula_sum              "Au2 Hf1 Br6"
_cell_length_a       7.674661890631404
_cell_length_b       7.674662032069553
_cell_length_c       7.674662010791545
_cell_angle_alpha    59.99999847103874
_cell_angle_beta     59.999999078128916
_cell_angle_gamma    60.000001248825974

_space_group_name_H-M_alt    "P 1"
_space_group_IT_number       1

loop_
  _space_group_symop_operation_xyz
  'x, y, z'

loop_
  _atom_site_type_symbol
  _atom_site_label
  _atom_site_symmetry_multiplicity
  _atom_site_fract_x
  _atom_site_fract_y
  _atom_site_fract_z
  _atom_site_occupancy
  Au  Au1       1.0  0.24999998614443325  0.2500000117693193  0.24999998478788305  1.0000
  Au  Au2       1.0  0.7500000258048434  0.7500000001997189  0.7499999877455784  1.0000
  Hf  Hf1       1.0  0.999999990544927  1.2766632409608896e-07  3.340659022159365e-08  1.0000
  Br  Br1       1.0  0.24233429731553757  0.24233418768636156  0.7576657549909205  1.0000
  Br  Br2       1.0  0.7576657182374394  0.7576657141704707  0.24233427340277297  1.0000
  Br  Br3       1.0  0.7576657866076391  0.24233420450126078  0.24233422599921928  1.0000
  Br  Br4       1.0  0.2423342762855814  0.7576657133138636  0.7576657512003712  1.0000
  Br  Br5       1.0  0.24233422323916168  0.7576657794449513  0.2423342584715731  1.0000
  Br  Br6       1.0  0.7576656973568447  0.2423342628448377  0.75766572894228  1.0000
