data_image0
_chemical_formula_structural       Au2IrCl6
_chemical_formula_sum              "Au2 Ir1 Cl6"
_cell_length_a       7.21172137571055
_cell_length_b       7.2117220462893155
_cell_length_c       7.211722425990897
_cell_angle_alpha    60.000001109073125
_cell_angle_beta     59.999993924148576
_cell_angle_gamma    60.00000221303045

_space_group_name_H-M_alt    "P 1"
_space_group_IT_number       1

loop_
  _space_group_symop_operation_xyz
  'x, y, z'

loop_
  _atom_site_type_symbol
  _atom_site_label
  _atom_site_symmetry_multiplicity
  _atom_site_fract_x
  _atom_site_fract_y
  _atom_site_fract_z
  _atom_site_occupancy
  Au  Au1       1.0  0.25000029850728234  0.24999958333266353  0.24999983426588418  1.0000
  Au  Au2       1.0  0.7500001070757447  0.749999933691891  0.7499994008513459  1.0000
  Ir  Ir1       1.0  0.9999999573823306  7.981867710328435e-08  1.630481978074257e-07  1.0000
  Cl  Cl1       1.0  0.2275928182116195  0.22759296202194723  0.7724073211729171  1.0000
  Cl  Cl2       1.0  0.7724069316678566  0.7724071867589389  0.22759330422944868  1.0000
  Cl  Cl3       1.0  0.7724069945984009  0.2275930115684904  0.22759302288767908  1.0000
  Cl  Cl4       1.0  0.22759304138931263  0.7724068552996227  0.7724069473136064  1.0000
  Cl  Cl5       1.0  0.2275929053736944  0.7724071543772869  0.2275930670928631  1.0000
  Cl  Cl6       1.0  0.7724069336480731  0.22759324574748305  0.7724069207716737  1.0000
