data_image0
_chemical_formula_structural       Au2IrBr6
_chemical_formula_sum              "Au2 Ir1 Br6"
_cell_length_a       7.27158500339308
_cell_length_b       7.271585042784747
_cell_length_c       7.271584948619182
_cell_angle_alpha    60.00000041465726
_cell_angle_beta     60.000000357548345
_cell_angle_gamma    59.99999982810355

_space_group_name_H-M_alt    "P 1"
_space_group_IT_number       1

loop_
  _space_group_symop_operation_xyz
  'x, y, z'

loop_
  _atom_site_type_symbol
  _atom_site_label
  _atom_site_symmetry_multiplicity
  _atom_site_fract_x
  _atom_site_fract_y
  _atom_site_fract_z
  _atom_site_occupancy
  Au  Au1       1.0  0.24999997265701876  0.24999999052444438  0.25000001524500987  1.0000
  Au  Au2       1.0  0.7500000037843112  0.750000023786283  0.7499999890988712  1.0000
  Ir  Ir1       1.0  2.0626987369469484e-08  2.8632908141257004e-08  0.9999999891222123  1.0000
  Br  Br1       1.0  0.24231632437635955  0.24231631398294512  0.7576836811835789  1.0000
  Br  Br2       1.0  0.757683665908058  0.7576836683262965  0.24231633361471752  1.0000
  Br  Br3       1.0  0.7576836949218947  0.242316302619918  0.24231627786899781  1.0000
  Br  Br4       1.0  0.24231632619156854  0.7576836729521687  0.7576837125064091  1.0000
  Br  Br5       1.0  0.242316320110062  0.7576836799805206  0.24231628574559505  1.0000
  Br  Br6       1.0  0.7576836720347693  0.2423163158030308  0.7576837117588273  1.0000
