data_image0
_chemical_formula_structural       Au2IrI6
_chemical_formula_sum              "Au2 Ir1 I6"
_cell_length_a       7.490066520639325
_cell_length_b       7.49006643208506
_cell_length_c       7.490066486438879
_cell_angle_alpha    60.000000061291445
_cell_angle_beta     59.99999947960312
_cell_angle_gamma    59.999998383365714

_space_group_name_H-M_alt    "P 1"
_space_group_IT_number       1

loop_
  _space_group_symop_operation_xyz
  'x, y, z'

loop_
  _atom_site_type_symbol
  _atom_site_label
  _atom_site_symmetry_multiplicity
  _atom_site_fract_x
  _atom_site_fract_y
  _atom_site_fract_z
  _atom_site_occupancy
  Au  Au1       1.0  0.25000000591639715  0.25000007757966636  0.24999995979308817  1.0000
  Au  Au2       1.0  0.7499999759887007  0.7499999972761182  0.7500000300068648  1.0000
  Ir  Ir1       1.0  4.237248156752754e-08  0.9999999607561854  0.9999999209997715  1.0000
  I   I1        1.0  0.252338068008275  0.2523380029158773  0.7476619562969643  1.0000
  I   I2        1.0  0.7476619678249785  0.747661965654578  0.25233804366035506  1.0000
  I   I3        1.0  0.7476619567685107  0.25233804119645575  0.2523380484954547  1.0000
  I   I4        1.0  0.2523379836217989  0.7476620009561517  0.7476620171314283  1.0000
  I   I5        1.0  0.25233803151215145  0.7476619505877216  0.2523380373728149  1.0000
  I   I6        1.0  0.7476619744073688  0.2523379967256683  0.7476619868348025  1.0000
