data_image0
_chemical_formula_structural       Au2IrF6
_chemical_formula_sum              "Au2 Ir1 F6"
_cell_length_a       7.680395523412006
_cell_length_b       7.680395896493659
_cell_length_c       7.680394809767775
_cell_angle_alpha    60.000001617909945
_cell_angle_beta     60.00000495823786
_cell_angle_gamma    60.00000103895145

_space_group_name_H-M_alt    "P 1"
_space_group_IT_number       1

loop_
  _space_group_symop_operation_xyz
  'x, y, z'

loop_
  _atom_site_type_symbol
  _atom_site_label
  _atom_site_symmetry_multiplicity
  _atom_site_fract_x
  _atom_site_fract_y
  _atom_site_fract_z
  _atom_site_occupancy
  Au  Au1       1.0  0.25000016105201206  0.24999966454038755  0.24999993070409743  1.0000
  Au  Au2       1.0  0.7499999323055229  0.749999865887949  0.7500001912711798  1.0000
  Ir  Ir1       1.0  0.9999990060565319  1.9805400226305225e-06  0.9999987762704624  1.0000
  F   F1        1.0  0.1733817065172406  0.1733819423797218  0.8266182860114475  1.0000
  F   F2        1.0  0.8266178856922318  0.8266176932947017  0.17338219406282504  1.0000
  F   F3        1.0  0.8266180687086414  0.17338183086562192  0.17338195800519712  1.0000
  F   F4        1.0  0.17338232264494266  0.8266179196227152  0.8266177161496763  1.0000
  F   F5        1.0  0.17338252624168254  0.8266175738090258  0.17338256117065037  1.0000
  F   F6        1.0  0.8266184108866326  0.17338151809389388  0.8266184727080055  1.0000
