data_image0
_chemical_formula_structural       Au2MnCl6
_chemical_formula_sum              "Au2 Mn1 Cl6"
_cell_length_a       7.9199803767800265
_cell_length_b       7.919980997269184
_cell_length_c       7.919979573114376
_cell_angle_alpha    60.000003065271315
_cell_angle_beta     59.99999691567798
_cell_angle_gamma    60.00000687710115

_space_group_name_H-M_alt    "P 1"
_space_group_IT_number       1

loop_
  _space_group_symop_operation_xyz
  'x, y, z'

loop_
  _atom_site_type_symbol
  _atom_site_label
  _atom_site_symmetry_multiplicity
  _atom_site_fract_x
  _atom_site_fract_y
  _atom_site_fract_z
  _atom_site_occupancy
  Au  Au1       1.0  0.24999984868196756  0.24999987925063058  0.24999981960851847  1.0000
  Au  Au2       1.0  0.7499997784370902  0.750000423322408  0.7500000458070976  1.0000
  Mn  Mn1       1.0  2.7560233150966967e-07  0.9999997680402178  0.9999998746430964  1.0000
  Cl  Cl1       1.0  0.1946858377261726  0.19468589772153647  0.8053143290231597  1.0000
  Cl  Cl2       1.0  0.8053141439295946  0.8053142641292397  0.1946858815065866  1.0000
  Cl  Cl3       1.0  0.805314374081858  0.19468567515103166  0.1946859559647005  1.0000
  Cl  Cl4       1.0  0.19468566875527607  0.8053141325744595  0.8053141232585155  1.0000
  Cl  Cl5       1.0  0.19468579895501661  0.8053140139576653  0.19468590998817972  1.0000
  Cl  Cl6       1.0  0.8053142938342307  0.19468587572695653  0.8053141184309642  1.0000
