data_image0
_chemical_formula_structural       Au2MgF6
_chemical_formula_sum              "Au2 Mg1 F6"
_cell_length_a       5.312881571713352
_cell_length_b       5.312881255272054
_cell_length_c       5.312881571745961
_cell_angle_alpha    60.00000184858923
_cell_angle_beta     60.00000182794992
_cell_angle_gamma    60.00000275946791

_space_group_name_H-M_alt    "P 1"
_space_group_IT_number       1

loop_
  _space_group_symop_operation_xyz
  'x, y, z'

loop_
  _atom_site_type_symbol
  _atom_site_label
  _atom_site_symmetry_multiplicity
  _atom_site_fract_x
  _atom_site_fract_y
  _atom_site_fract_z
  _atom_site_occupancy
  Au  Au1       1.0  0.2500000580095977  0.249999917571946  0.2499999558958797  1.0000
  Au  Au2       1.0  0.7499999943560698  0.750000057007068  0.749999812907263  1.0000
  Mg  Mg1       1.0  9.593841702134613e-09  0.9999999907790524  0.9999999621691978  1.0000
  F   F1        1.0  0.2520365648514507  0.25203651325691756  0.7479635221936815  1.0000
  F   F2        1.0  0.7479634558135033  0.7479634521011634  0.2520366623360117  1.0000
  F   F3        1.0  0.7479634581734249  0.2520364837989011  0.2520366328033471  1.0000
  F   F4        1.0  0.25203651160312796  0.7479634907801186  0.7479634012782614  1.0000
  F   F5        1.0  0.2520365791948536  0.7479634496831257  0.25203651587700776  1.0000
  F   F6        1.0  0.7479633704485256  0.2520366309367796  0.7479635128951027  1.0000
