data_image0
_chemical_formula_structural       Au2MoBr6
_chemical_formula_sum              "Au2 Mo1 Br6"
_cell_length_a       7.708927207021071
_cell_length_b       7.708926477543709
_cell_length_c       7.70892700785387
_cell_angle_alpha    59.99999740553357
_cell_angle_beta     60.00000049734104
_cell_angle_gamma    60.00000104574724

_space_group_name_H-M_alt    "P 1"
_space_group_IT_number       1

loop_
  _space_group_symop_operation_xyz
  'x, y, z'

loop_
  _atom_site_type_symbol
  _atom_site_label
  _atom_site_symmetry_multiplicity
  _atom_site_fract_x
  _atom_site_fract_y
  _atom_site_fract_z
  _atom_site_occupancy
  Au  Au1       1.0  0.24999992614230526  0.24999999783291782  0.2500000336310755  1.0000
  Au  Au2       1.0  0.7500000071629904  0.7499999903212914  0.7499999984914987  1.0000
  Mo  Mo1       1.0  1.8247077518889848e-08  0.9999999857013767  0.9999999954313781  1.0000
  Br  Br1       1.0  0.2274698748836952  0.22746994138665072  0.7725301117359935  1.0000
  Br  Br2       1.0  0.7725301147048004  0.772530080131017  0.22746988075204064  1.0000
  Br  Br3       1.0  0.7725301236432347  0.22746989891265898  0.22747001587103124  1.0000
  Br  Br4       1.0  0.22746994032499462  0.7725300971852361  0.7725299119239032  1.0000
  Br  Br5       1.0  0.22746996094085586  0.7725300412250071  0.22747004049359987  1.0000
  Br  Br6       1.0  0.7725300415236592  0.22746995963909292  0.7725300090683015  1.0000
