data_image0
_chemical_formula_structural       Au2MnBr6
_chemical_formula_sum              "Au2 Mn1 Br6"
_cell_length_a       11.274917068986763
_cell_length_b       11.274914980661144
_cell_length_c       11.274920254097596
_cell_angle_alpha    60.00000096054603
_cell_angle_beta     59.99997922886433
_cell_angle_gamma    60.000001530231366

_space_group_name_H-M_alt    "P 1"
_space_group_IT_number       1

loop_
  _space_group_symop_operation_xyz
  'x, y, z'

loop_
  _atom_site_type_symbol
  _atom_site_label
  _atom_site_symmetry_multiplicity
  _atom_site_fract_x
  _atom_site_fract_y
  _atom_site_fract_z
  _atom_site_occupancy
  Au  Au1       1.0  0.2500002955614449  0.24999960275291505  0.24999988317812852  1.0000
  Au  Au2       1.0  0.7499997997366895  0.7500001334915564  0.7500001228574488  1.0000
  Mn  Mn1       1.0  0.9999999714573714  8.25554918737386e-08  1.822671696542793e-08  1.0000
  Br  Br1       1.0  0.1442513385677914  0.14425183522628082  0.855748398684877  1.0000
  Br  Br2       1.0  0.8557487504256543  0.8557481780136114  0.1442516786587156  1.0000
  Br  Br3       1.0  0.8557482764730003  0.14425157572048353  0.14425157237011574  1.0000
  Br  Br4       1.0  0.14425156797639774  0.8557486764957376  0.8557482860263286  1.0000
  Br  Br5       1.0  0.14425165886804087  0.8557487663343069  0.14425130617460133  1.0000
  Br  Br6       1.0  0.8557484022981451  0.14425123821549826  0.8557486421982432  1.0000
