data_image0
_chemical_formula_structural       Au2MnI6
_chemical_formula_sum              "Au2 Mn1 I6"
_cell_length_a       7.605976616004082
_cell_length_b       7.605976215760705
_cell_length_c       7.605976114416378
_cell_angle_alpha    60.00000009662764
_cell_angle_beta     59.999999714042
_cell_angle_gamma    59.99999882052587

_space_group_name_H-M_alt    "P 1"
_space_group_IT_number       1

loop_
  _space_group_symop_operation_xyz
  'x, y, z'

loop_
  _atom_site_type_symbol
  _atom_site_label
  _atom_site_symmetry_multiplicity
  _atom_site_fract_x
  _atom_site_fract_y
  _atom_site_fract_z
  _atom_site_occupancy
  Au  Au1       1.0  0.2500000207595859  0.25000002696498685  0.24999999354346988  1.0000
  Au  Au2       1.0  0.7499999965722114  0.7499998908866156  0.7500001466157706  1.0000
  Mn  Mn1       1.0  0.9999999764725171  2.2543363105407404e-07  1.211591087315192e-08  1.0000
  I   I1        1.0  0.23712326489580723  0.2371231480386537  0.7628767984316376  1.0000
  I   I2        1.0  0.7628766472074577  0.7628768213406353  0.237123264712332  1.0000
  I   I3        1.0  0.76287680446139  0.23712324460183534  0.23712312215832365  1.0000
  I   I4        1.0  0.23712331012403912  0.7628766684190446  0.7628766917465089  1.0000
  I   I5        1.0  0.23712323156833026  0.7628767702336746  0.23712319892736483  1.0000
  I   I6        1.0  0.7628767490200203  0.23712321685825632  0.7628767737865363  1.0000
