data_image0
_chemical_formula_structural       Au2MoCl6
_chemical_formula_sum              "Au2 Mo1 Cl6"
_cell_length_a       11.313387484684805
_cell_length_b       11.313389331620318
_cell_length_c       11.31339196760191
_cell_angle_alpha    60.00000223539695
_cell_angle_beta     59.999997205288324
_cell_angle_gamma    59.999978013734626

_space_group_name_H-M_alt    "P 1"
_space_group_IT_number       1

loop_
  _space_group_symop_operation_xyz
  'x, y, z'

loop_
  _atom_site_type_symbol
  _atom_site_label
  _atom_site_symmetry_multiplicity
  _atom_site_fract_x
  _atom_site_fract_y
  _atom_site_fract_z
  _atom_site_occupancy
  Au  Au1       1.0  0.25000047329554176  0.24999943464318955  0.249999822328898  1.0000
  Au  Au2       1.0  0.7499997794479105  0.7500005123572678  0.7499997858176366  1.0000
  Mo  Mo1       1.0  0.9999999773193115  0.9999999761836428  1.3020141224309118e-07  1.0000
  Cl  Cl1       1.0  0.14514922139654104  0.14515032792723961  0.8548504333909522  1.0000
  Cl  Cl2       1.0  0.8548507655871135  0.8548495681929034  0.14514986784007874  1.0000
  Cl  Cl3       1.0  0.8548496185876594  0.14515001021594784  0.14514971617976663  1.0000
  Cl  Cl4       1.0  0.14514997163534613  0.8548502463975458  0.8548502770227815  1.0000
  Cl  Cl5       1.0  0.1451501007036915  0.8548502319508904  0.1451496071111455  1.0000
  Cl  Cl6       1.0  0.8548500482643203  0.1451496620040607  0.8548503348953223  1.0000
