data_image0
_chemical_formula_structural       Au2MgBr6
_chemical_formula_sum              "Au2 Mg1 Br6"
_cell_length_a       7.264007541949915
_cell_length_b       7.264007859439809
_cell_length_c       7.264007940686281
_cell_angle_alpha    60.00000067752866
_cell_angle_beta     59.99999959885544
_cell_angle_gamma    60.000001188392844

_space_group_name_H-M_alt    "P 1"
_space_group_IT_number       1

loop_
  _space_group_symop_operation_xyz
  'x, y, z'

loop_
  _atom_site_type_symbol
  _atom_site_label
  _atom_site_symmetry_multiplicity
  _atom_site_fract_x
  _atom_site_fract_y
  _atom_site_fract_z
  _atom_site_occupancy
  Au  Au1       1.0  0.2499999931877066  0.2500001308416844  0.24999997012307365  1.0000
  Au  Au2       1.0  0.7499999741745758  0.7500000081066538  0.7499999731142438  1.0000
  Mg  Mg1       1.0  0.9999999765414194  0.999999979767453  7.140498062206166e-08  1.0000
  Br  Br1       1.0  0.25664092113408304  0.2566408961958568  0.7433590671064642  1.0000
  Br  Br2       1.0  0.7433591142485813  0.7433590100781875  0.2566409116516917  1.0000
  Br  Br3       1.0  0.7433590640513883  0.2566409175935519  0.2566409183517166  1.0000
  Br  Br4       1.0  0.25664096063644454  0.7433590493781346  0.7433590904710535  1.0000
  Br  Br5       1.0  0.2566409075014297  0.7433591068978721  0.2566408827275601  1.0000
  Br  Br6       1.0  0.743359084526182  0.25664090559704555  0.7433591086505011  1.0000
