data_image0
_chemical_formula_structural       Au2MnF6
_chemical_formula_sum              "Au2 Mn1 F6"
_cell_length_a       5.404011715825704
_cell_length_b       5.404011817363714
_cell_length_c       5.404011800162467
_cell_angle_alpha    59.99999908887805
_cell_angle_beta     60.00000071592088
_cell_angle_gamma    60.00000129498707

_space_group_name_H-M_alt    "P 1"
_space_group_IT_number       1

loop_
  _space_group_symop_operation_xyz
  'x, y, z'

loop_
  _atom_site_type_symbol
  _atom_site_label
  _atom_site_symmetry_multiplicity
  _atom_site_fract_x
  _atom_site_fract_y
  _atom_site_fract_z
  _atom_site_occupancy
  Au  Au1       1.0  0.24999993852557878  0.2500001228527893  0.24999995675009076  1.0000
  Au  Au2       1.0  0.7499998610596488  0.7499999628795105  0.7500002094892774  1.0000
  Mn  Mn1       1.0  0.9999999913456336  0.9999999682709287  0.9999999369202502  1.0000
  F   F1        1.0  0.24225296947182384  0.2422528678135062  0.7577470909746729  1.0000
  F   F2        1.0  0.7577471181224835  0.7577471295306704  0.2422528052103288  1.0000
  F   F3        1.0  0.757747053277627  0.24225301794797657  0.2422529046852342  1.0000
  F   F4        1.0  0.2422530126899823  0.7577469929943721  0.7577470824864531  1.0000
  F   F5        1.0  0.24225298438619922  0.7577470330633272  0.24225287655118527  1.0000
  F   F6        1.0  0.7577470683091806  0.2422528894908911  0.7577471336935261  1.0000
