data_image0
_chemical_formula_structural       Au2MgCl6
_chemical_formula_sum              "Au2 Mg1 Cl6"
_cell_length_a       6.87728812848936
_cell_length_b       6.877288256868911
_cell_length_c       6.877288255643498
_cell_angle_alpha    60.00000122000479
_cell_angle_beta     60.000002107342326
_cell_angle_gamma    59.99999908625268

_space_group_name_H-M_alt    "P 1"
_space_group_IT_number       1

loop_
  _space_group_symop_operation_xyz
  'x, y, z'

loop_
  _atom_site_type_symbol
  _atom_site_label
  _atom_site_symmetry_multiplicity
  _atom_site_fract_x
  _atom_site_fract_y
  _atom_site_fract_z
  _atom_site_occupancy
  Au  Au1       1.0  0.24999951468825904  0.25000038835392785  0.2500000969403826  1.0000
  Au  Au2       1.0  0.7499996971262824  0.7499996602398354  0.7500001497159744  1.0000
  Mg  Mg1       1.0  0.9999999514775831  4.986392247208976e-08  0.9999999164477418  1.0000
  Cl  Cl1       1.0  0.25183947427135295  0.2518394355908784  0.748160483393101  1.0000
  Cl  Cl2       1.0  0.7481608098196755  0.7481604687536573  0.251839466466718  1.0000
  Cl  Cl3       1.0  0.7481607592904622  0.25183945271295555  0.2518392846734458  1.0000
  Cl  Cl4       1.0  0.25183947439544974  0.7481605121806291  0.7481607139146819  1.0000
  Cl  Cl5       1.0  0.2518396372452244  0.74816056209363  0.25183934933985047  1.0000
  Cl  Cl6       1.0  0.7481606802541675  0.2518394686915632  0.7481605496766901  1.0000
