data_image0
_chemical_formula_structural       Au2MoI6
_chemical_formula_sum              "Au2 Mo1 I6"
_cell_length_a       7.76147830539504
_cell_length_b       7.761478601942873
_cell_length_c       7.7614787898250155
_cell_angle_alpha    59.99999892395353
_cell_angle_beta     59.999999591553916
_cell_angle_gamma    60.00000250959786

_space_group_name_H-M_alt    "P 1"
_space_group_IT_number       1

loop_
  _space_group_symop_operation_xyz
  'x, y, z'

loop_
  _atom_site_type_symbol
  _atom_site_label
  _atom_site_symmetry_multiplicity
  _atom_site_fract_x
  _atom_site_fract_y
  _atom_site_fract_z
  _atom_site_occupancy
  Au  Au1       1.0  0.24999999295358225  0.2500000135085646  0.24999999487984215  1.0000
  Au  Au2       1.0  0.7499999839711491  0.7499999805624996  0.7500000017586083  1.0000
  Mo  Mo1       1.0  2.9275111349303045e-08  0.9999999211010602  9.825152794200447e-08  1.0000
  I   I1        1.0  0.2509737822215982  0.25097375747164413  0.749026218622623  1.0000
  I   I2        1.0  0.749026208873976  0.749026247645272  0.2509737847336943  1.0000
  I   I3        1.0  0.749026143174903  0.2509738590414882  0.25097385536304767  1.0000
  I   I4        1.0  0.2509739259299771  0.7490260861122359  0.7490261170671711  1.0000
  I   I5        1.0  0.250973826028449  0.7490262091319385  0.2509738148714483  1.0000
  I   I6        1.0  0.7490261156392756  0.25097391748934406  0.749026106063696  1.0000
