data_image0
_chemical_formula_structural       Au2MgI6
_chemical_formula_sum              "Au2 Mg1 I6"
_cell_length_a       7.802169768435211
_cell_length_b       7.802169734311304
_cell_length_c       7.802169672366153
_cell_angle_alpha    59.99999957496268
_cell_angle_beta     60.00000006282081
_cell_angle_gamma    59.99999995841974

_space_group_name_H-M_alt    "P 1"
_space_group_IT_number       1

loop_
  _space_group_symop_operation_xyz
  'x, y, z'

loop_
  _atom_site_type_symbol
  _atom_site_label
  _atom_site_symmetry_multiplicity
  _atom_site_fract_x
  _atom_site_fract_y
  _atom_site_fract_z
  _atom_site_occupancy
  Au  Au1       1.0  0.2500000161094626  0.24999999730275613  0.24999998286109015  1.0000
  Au  Au2       1.0  0.7499999966190868  0.7499999871990207  0.7500000178067772  1.0000
  Mg  Mg1       1.0  2.010660542635874e-08  6.278996468402816e-09  0.9999999727085566  1.0000
  I   I1        1.0  0.26303723708668336  0.2630372374112011  0.7369627680861093  1.0000
  I   I2        1.0  0.7369627224525915  0.7369627423813284  0.2630372615310191  1.0000
  I   I3        1.0  0.7369627084687769  0.26303729514199226  0.2630372909427994  1.0000
  I   I4        1.0  0.26303726959195134  0.7369627223245151  0.73696272852034  1.0000
  I   I5        1.0  0.2630372694186645  0.7369627410996191  0.2630372619076805  1.0000
  I   I6        1.0  0.736962761577415  0.263037268518143  0.7369627196318185  1.0000
