data_image0
_chemical_formula_structural       Au2NiCl6
_chemical_formula_sum              "Au2 Ni1 Cl6"
_cell_length_a       6.84503492060942
_cell_length_b       6.845033986671857
_cell_length_c       6.845034725178573
_cell_angle_alpha    59.99999342845735
_cell_angle_beta     59.999995816548534
_cell_angle_gamma    59.999995871396806

_space_group_name_H-M_alt    "P 1"
_space_group_IT_number       1

loop_
  _space_group_symop_operation_xyz
  'x, y, z'

loop_
  _atom_site_type_symbol
  _atom_site_label
  _atom_site_symmetry_multiplicity
  _atom_site_fract_x
  _atom_site_fract_y
  _atom_site_fract_z
  _atom_site_occupancy
  Au  Au1       1.0  0.2499998700788879  0.24999983543704293  0.2500002863589984  1.0000
  Au  Au2       1.0  0.7499996266348139  0.7500001504396966  0.7499999882758227  1.0000
  Ni  Ni1       1.0  6.614942465282361e-08  0.999999892645242  0.9999999943062331  1.0000
  Cl  Cl1       1.0  0.23665857378926947  0.23665881061762728  0.7633413304819722  1.0000
  Cl  Cl2       1.0  0.7633417646784542  0.763341205676313  0.23665858695650482  1.0000
  Cl  Cl3       1.0  0.7633414436395721  0.23665872688533166  0.23665844507314304  1.0000
  Cl  Cl4       1.0  0.23665889131386242  0.7633415327460673  0.7633411713005357  1.0000
  Cl  Cl5       1.0  0.2366583472269938  0.7633414349022523  0.2366587485335887  1.0000
  Cl  Cl6       1.0  0.7633414517724132  0.23665832731874425  0.7633415130826784  1.0000
