data_image0
_chemical_formula_structural       Au2NiI6
_chemical_formula_sum              "Au2 Ni1 I6"
_cell_length_a       7.412416921950814
_cell_length_b       7.412416964719929
_cell_length_c       7.41241670005974
_cell_angle_alpha    60.000000815413344
_cell_angle_beta     60.00000058607503
_cell_angle_gamma    59.9999993874053

_space_group_name_H-M_alt    "P 1"
_space_group_IT_number       1

loop_
  _space_group_symop_operation_xyz
  'x, y, z'

loop_
  _atom_site_type_symbol
  _atom_site_label
  _atom_site_symmetry_multiplicity
  _atom_site_fract_x
  _atom_site_fract_y
  _atom_site_fract_z
  _atom_site_occupancy
  Au  Au1       1.0  0.25000000083477764  0.25000000780120013  0.2499999969215919  1.0000
  Au  Au2       1.0  0.7500000094752566  0.7500000118375834  0.7499999310042892  1.0000
  Ni  Ni1       1.0  4.138827207785667e-09  0.9999999735633898  0.9999999922616641  1.0000
  I   I1        1.0  0.2539266106931997  0.253926647728576  0.7460733814454308  1.0000
  I   I2        1.0  0.7460733721273373  0.7460733702579195  0.2539266622329186  1.0000
  I   I3        1.0  0.7460733966068319  0.2539265920344958  0.25392662152393225  1.0000
  I   I4        1.0  0.2539265893455026  0.7460733978631013  0.7460734103493893  1.0000
  I   I5        1.0  0.25392660799395605  0.7460733479308009  0.2539266137417266  1.0000
  I   I6        1.0  0.7460733992167068  0.25392664361908407  0.746073402629024  1.0000
