data_image0
_chemical_formula_structural       Au2NbI6
_chemical_formula_sum              "Au2 Nb1 I6"
_cell_length_a       8.019603818692852
_cell_length_b       8.019603678692288
_cell_length_c       8.019603814102668
_cell_angle_alpha    60.00000026648651
_cell_angle_beta     59.99999750280107
_cell_angle_gamma    59.99999989520984

_space_group_name_H-M_alt    "P 1"
_space_group_IT_number       1

loop_
  _space_group_symop_operation_xyz
  'x, y, z'

loop_
  _atom_site_type_symbol
  _atom_site_label
  _atom_site_symmetry_multiplicity
  _atom_site_fract_x
  _atom_site_fract_y
  _atom_site_fract_z
  _atom_site_occupancy
  Au  Au1       1.0  0.24999998257757255  0.24999999465359088  0.24999998486504246  1.0000
  Au  Au2       1.0  0.7499999944915784  0.7499999732704522  0.7499999814508546  1.0000
  Nb  Nb1       1.0  0.999999957488326  0.9999999893096772  0.9999999567721133  1.0000
  I   I1        1.0  0.24310595266243762  0.24310595935813697  0.7568940640630707  1.0000
  I   I2        1.0  0.7568940736359605  0.7568941200506886  0.24310594284941744  1.0000
  I   I3        1.0  0.7568941250669632  0.24310586407390786  0.24310594618084547  1.0000
  I   I4        1.0  0.2431059757716904  0.7568940565072855  0.7568940517506085  1.0000
  I   I5        1.0  0.24310597281641608  0.7568940223818985  0.24310606835071602  1.0000
  I   I6        1.0  0.7568939943035261  0.24310601426564157  0.7568940007541434  1.0000
