data_image0
_chemical_formula_structural       Au2NiCl6
_chemical_formula_sum              "Au2 Ni1 Cl6"
_cell_length_a       6.835725254539725
_cell_length_b       6.835725698868371
_cell_length_c       6.835725987754722
_cell_angle_alpha    60.00000067624345
_cell_angle_beta     59.9999979094317
_cell_angle_gamma    59.99999945245801

_space_group_name_H-M_alt    "P 1"
_space_group_IT_number       1

loop_
  _space_group_symop_operation_xyz
  'x, y, z'

loop_
  _atom_site_type_symbol
  _atom_site_label
  _atom_site_symmetry_multiplicity
  _atom_site_fract_x
  _atom_site_fract_y
  _atom_site_fract_z
  _atom_site_occupancy
  Au  Au1       1.0  0.25000041497948255  0.2500001096897537  0.2500000597581137  1.0000
  Au  Au2       1.0  0.7500003893882475  0.7499996625634462  0.749999571025676  1.0000
  Ni  Ni1       1.0  0.9999999247699342  1.7916824428645395e-08  4.6211449019095044e-08  1.0000
  Cl  Cl1       1.0  0.23697337551544553  0.2369736804177752  0.7630265591468068  1.0000
  Cl  Cl2       1.0  0.7630265671274012  0.7630263104206837  0.23697370626790393  1.0000
  Cl  Cl3       1.0  0.7630259552036234  0.23697355319059046  0.23697358731422755  1.0000
  Cl  Cl4       1.0  0.23697360028413342  0.7630264842316086  0.7630265060669916  1.0000
  Cl  Cl5       1.0  0.2369733511182323  0.7630265750937145  0.23697367636302297  1.0000
  Cl  Cl6       1.0  0.7630264391848967  0.23697360924642755  0.7630262802789323  1.0000
