data_image0
_chemical_formula_structural       Au2NiF6
_chemical_formula_sum              "Au2 Ni1 F6"
_cell_length_a       5.309647314709158
_cell_length_b       5.309647460469947
_cell_length_c       5.309647410969533
_cell_angle_alpha    59.99999975648343
_cell_angle_beta     60.000000520135366
_cell_angle_gamma    60.00000028187327

_space_group_name_H-M_alt    "P 1"
_space_group_IT_number       1

loop_
  _space_group_symop_operation_xyz
  'x, y, z'

loop_
  _atom_site_type_symbol
  _atom_site_label
  _atom_site_symmetry_multiplicity
  _atom_site_fract_x
  _atom_site_fract_y
  _atom_site_fract_z
  _atom_site_occupancy
  Au  Au1       1.0  0.24999989710806367  0.24999989315032733  0.2500001388114274  1.0000
  Au  Au2       1.0  0.7499998946208959  0.7500000808064583  0.7499999370719542  1.0000
  Ni  Ni1       1.0  0.9999998364813601  0.999999831615234  0.9999999870321006  1.0000
  F   F1        1.0  0.24602057164635552  0.24602059369854878  0.753979421967646  1.0000
  F   F2        1.0  0.7539796383301545  0.7539794955902684  0.24602044927696737  1.0000
  F   F3        1.0  0.7539794632180399  0.24602057250639406  0.24602056539711972  1.0000
  F   F4        1.0  0.2460204880532387  0.7539795882882833  0.7539794747817459  1.0000
  F   F5        1.0  0.2460206094495548  0.7539794482975019  0.24602052536772415  1.0000
  F   F6        1.0  0.7539796026602931  0.24602049105967178  0.7539794951106117  1.0000
