data_image0
_chemical_formula_structural       Au2NiF6
_chemical_formula_sum              "Au2 Ni1 F6"
_cell_length_a       5.308734432839606
_cell_length_b       5.308734564429807
_cell_length_c       5.308734169300081
_cell_angle_alpha    60.00000326243252
_cell_angle_beta     60.00000169916944
_cell_angle_gamma    60.00000248354847

_space_group_name_H-M_alt    "P 1"
_space_group_IT_number       1

loop_
  _space_group_symop_operation_xyz
  'x, y, z'

loop_
  _atom_site_type_symbol
  _atom_site_label
  _atom_site_symmetry_multiplicity
  _atom_site_fract_x
  _atom_site_fract_y
  _atom_site_fract_z
  _atom_site_occupancy
  Au  Au1       1.0  0.250000219036315  0.2499999040633019  0.25000011437704933  1.0000
  Au  Au2       1.0  0.7500000703343699  0.7499999521217695  0.7499997950999179  1.0000
  Ni  Ni1       1.0  0.9999999892564633  0.9999999930788882  0.9999999994138831  1.0000
  F   F1        1.0  0.2459562591123967  0.24595620515995578  0.7540437620544905  1.0000
  F   F2        1.0  0.7540437070887466  0.7540438309740191  0.24595628872926067  1.0000
  F   F3        1.0  0.7540436330660428  0.24595622228288244  0.24595627079610632  1.0000
  F   F4        1.0  0.2459562315426763  0.7540438184651655  0.7540437079207745  1.0000
  F   F5        1.0  0.24595618648206696  0.7540437309116745  0.24595628595270103  1.0000
  F   F6        1.0  0.7540437351842681  0.24595632137156026  0.7540437394663717  1.0000
