data_image0
_chemical_formula_structural       Au2NiBr6
_chemical_formula_sum              "Au2 Ni1 Br6"
_cell_length_a       7.094862731856361
_cell_length_b       7.094862570200534
_cell_length_c       7.0948624059016865
_cell_angle_alpha    60.0000006712961
_cell_angle_beta     60.00000104046201
_cell_angle_gamma    60.00000115505769

_space_group_name_H-M_alt    "P 1"
_space_group_IT_number       1

loop_
  _space_group_symop_operation_xyz
  'x, y, z'

loop_
  _atom_site_type_symbol
  _atom_site_label
  _atom_site_symmetry_multiplicity
  _atom_site_fract_x
  _atom_site_fract_y
  _atom_site_fract_z
  _atom_site_occupancy
  Au  Au1       1.0  0.24999996772719715  0.2500000018387288  0.25000002922071757  1.0000
  Au  Au2       1.0  0.7500000023613649  0.750000010694913  0.7499999847419606  1.0000
  Ni  Ni1       1.0  9.26217981129176e-08  0.9999999223191182  0.9999999234654819  1.0000
  Br  Br1       1.0  0.23838668193860862  0.23838667383669623  0.761613324474733  1.0000
  Br  Br2       1.0  0.7616133512451286  0.7616133300657371  0.23838665238966755  1.0000
  Br  Br3       1.0  0.761613315359342  0.23838666935342218  0.23838669078182842  1.0000
  Br  Br4       1.0  0.23838661392564636  0.7616133777050562  0.7616134010221605  1.0000
  Br  Br5       1.0  0.23838661926086838  0.7616133790456339  0.23838661503205885  1.0000
  Br  Br6       1.0  0.7616133710320296  0.23838662658304088  0.7616133556346992  1.0000
