data_image0
_chemical_formula_structural       Au2NbCl6
_chemical_formula_sum              "Au2 Nb1 Cl6"
_cell_length_a       8.579975808263463
_cell_length_b       8.57997630507595
_cell_length_c       8.5799759262155
_cell_angle_alpha    60.00000578239773
_cell_angle_beta     60.000002111958146
_cell_angle_gamma    60.00000207881374

_space_group_name_H-M_alt    "P 1"
_space_group_IT_number       1

loop_
  _space_group_symop_operation_xyz
  'x, y, z'

loop_
  _atom_site_type_symbol
  _atom_site_label
  _atom_site_symmetry_multiplicity
  _atom_site_fract_x
  _atom_site_fract_y
  _atom_site_fract_z
  _atom_site_occupancy
  Au  Au1       1.0  0.25000005178897305  0.25000020089020375  0.2500001963372199  1.0000
  Au  Au2       1.0  0.7499998290749504  0.7500002814953536  0.7499997915299889  1.0000
  Nb  Nb1       1.0  2.6673663146855578e-08  0.999999871529912  8.236682849587194e-08  1.0000
  Cl  Cl1       1.0  0.19583197051502088  0.19583202803518054  0.8041680987736991  1.0000
  Cl  Cl2       1.0  0.8041678802584938  0.8041680560930957  0.19583191095910907  1.0000
  Cl  Cl3       1.0  0.80416800772964  0.19583200144897875  0.19583201988969196  1.0000
  Cl  Cl4       1.0  0.19583209649689293  0.8041677301002728  0.8041680976813348  1.0000
  Cl  Cl5       1.0  0.19583204960422498  0.8041678760628865  0.1958319986182813  1.0000
  Cl  Cl6       1.0  0.8041680491830462  0.19583195255264904  0.8041679414372361  1.0000
