data_image0
_chemical_formula_structural       Au2OsF6
_chemical_formula_sum              "Au2 Os1 F6"
_cell_length_a       11.137693570374367
_cell_length_b       11.137696318058177
_cell_length_c       11.137693575030996
_cell_angle_alpha    60.000012949601334
_cell_angle_beta     60.000010382063145
_cell_angle_gamma    60.0000188785833

_space_group_name_H-M_alt    "P 1"
_space_group_IT_number       1

loop_
  _space_group_symop_operation_xyz
  'x, y, z'

loop_
  _atom_site_type_symbol
  _atom_site_label
  _atom_site_symmetry_multiplicity
  _atom_site_fract_x
  _atom_site_fract_y
  _atom_site_fract_z
  _atom_site_occupancy
  Au  Au1       1.0  0.2500000262172514  0.2500003438915258  0.24999960595361365  1.0000
  Au  Au2       1.0  0.7499994612235795  0.74999957465272  0.7499998999783536  1.0000
  Os  Os1       1.0  9.82124768985497e-07  2.611642934088437e-06  0.99999754768439  1.0000
  F   F1        1.0  0.11971944453169357  0.1197190011812337  0.8802807536311877  1.0000
  F   F2        1.0  0.8802790989066532  0.8802793514768759  0.11972116278043039  1.0000
  F   F3        1.0  0.8802798981230633  0.11972005073286433  0.11971974601431187  1.0000
  F   F4        1.0  0.11972044578123603  0.8802796808728123  0.8802803705933796  1.0000
  F   F5        1.0  0.11972015267057758  0.8802798639786444  0.11972053831440432  1.0000
  F   F6        1.0  0.8802803576313424  0.11971960481330776  0.8802802083094122  1.0000
