data_image0
_chemical_formula_structural       Au2OsCl6
_chemical_formula_sum              "Au2 Os1 Cl6"
_cell_length_a       7.549931351219185
_cell_length_b       7.5499293594926025
_cell_length_c       7.549930401535401
_cell_angle_alpha    59.99998999996211
_cell_angle_beta     59.99998947274221
_cell_angle_gamma    59.99999502175689

_space_group_name_H-M_alt    "P 1"
_space_group_IT_number       1

loop_
  _space_group_symop_operation_xyz
  'x, y, z'

loop_
  _atom_site_type_symbol
  _atom_site_label
  _atom_site_symmetry_multiplicity
  _atom_site_fract_x
  _atom_site_fract_y
  _atom_site_fract_z
  _atom_site_occupancy
  Au  Au1       1.0  0.2500003104776214  0.24999977949904684  0.2499997645714987  1.0000
  Au  Au2       1.0  0.7499999480187161  0.7500001139057947  0.7500004440845821  1.0000
  Os  Os1       1.0  0.9999999910408829  0.99999993511224  0.9999999786447593  1.0000
  Cl  Cl1       1.0  0.2165515195165786  0.21655187134012535  0.7834483191183914  1.0000
  Cl  Cl2       1.0  0.783448191103174  0.783448307570823  0.2165516750244266  1.0000
  Cl  Cl3       1.0  0.7834482673006055  0.21655173570699215  0.2165516232834782  1.0000
  Cl  Cl4       1.0  0.21655181542132385  0.7834481252539596  0.7834483371606438  1.0000
  Cl  Cl5       1.0  0.216551588579112  0.7834483233764538  0.21655174024452406  1.0000
  Cl  Cl6       1.0  0.7834483595671503  0.2165516706043959  0.7834482395207094  1.0000
