data_image0
_chemical_formula_structural       Au2OsBr6
_chemical_formula_sum              "Au2 Os1 Br6"
_cell_length_a       7.3993316983857955
_cell_length_b       7.399331652717778
_cell_length_c       7.399331672858618
_cell_angle_alpha    59.99999993082322
_cell_angle_beta     59.999998964466265
_cell_angle_gamma    60.00000066223812

_space_group_name_H-M_alt    "P 1"
_space_group_IT_number       1

loop_
  _space_group_symop_operation_xyz
  'x, y, z'

loop_
  _atom_site_type_symbol
  _atom_site_label
  _atom_site_symmetry_multiplicity
  _atom_site_fract_x
  _atom_site_fract_y
  _atom_site_fract_z
  _atom_site_occupancy
  Au  Au1       1.0  0.2500000020961201  0.2500000109919103  0.2499999931573192  1.0000
  Au  Au2       1.0  0.7500000146753145  0.7499999750433769  0.7500000353285458  1.0000
  Os  Os1       1.0  0.9999999348031935  3.641462155569968e-08  0.9999999089761671  1.0000
  Br  Br1       1.0  0.23716132426311176  0.237161357596714  0.7628386796356167  1.0000
  Br  Br2       1.0  0.7628386940526286  0.7628386565771454  0.23716134211764994  1.0000
  Br  Br3       1.0  0.7628386283727274  0.23716138204458329  0.23716133346223509  1.0000
  Br  Br4       1.0  0.23716130408044173  0.7628386884064192  0.7628386665939644  1.0000
  Br  Br5       1.0  0.23716141898339219  0.7628385866857896  0.23716138778812326  1.0000
  Br  Br6       1.0  0.762838684218592  0.2371613132785721  0.7628386702503439  1.0000
