data_image0
_chemical_formula_structural       Au2OsI6
_chemical_formula_sum              "Au2 Os1 I6"
_cell_length_a       7.5621571643300936
_cell_length_b       7.5621571372897325
_cell_length_c       7.562156996179034
_cell_angle_alpha    60.000000733693085
_cell_angle_beta     60.00000109724981
_cell_angle_gamma    59.999999060988245

_space_group_name_H-M_alt    "P 1"
_space_group_IT_number       1

loop_
  _space_group_symop_operation_xyz
  'x, y, z'

loop_
  _atom_site_type_symbol
  _atom_site_label
  _atom_site_symmetry_multiplicity
  _atom_site_fract_x
  _atom_site_fract_y
  _atom_site_fract_z
  _atom_site_occupancy
  Au  Au1       1.0  0.2499999884504674  0.24999993706401638  0.25000004765535294  1.0000
  Au  Au2       1.0  0.7499999860616487  0.750000033073245  0.7499999092685457  1.0000
  Os  Os1       1.0  0.9999999951730724  0.9999999595107307  2.92699685878722e-08  1.0000
  I   I1        1.0  0.25150861769540844  0.25150863521559935  0.7484913895046756  1.0000
  I   I2        1.0  0.7484914047209452  0.7484914385741909  0.25150864768097503  1.0000
  I   I3        1.0  0.7484913741430885  0.2515086174556462  0.25150860816338083  1.0000
  I   I4        1.0  0.2515086669062759  0.7484913866926005  0.7484913646051026  1.0000
  I   I5        1.0  0.2515086128322868  0.7484913510853839  0.2515086184379339  1.0000
  I   I6        1.0  0.7484913452221389  0.25150865468243494  0.7484913831168664  1.0000
