data_image0
_chemical_formula_structural       Au2PbI6
_chemical_formula_sum              "Au2 Pb1 I6"
_cell_length_a       8.161702061076008
_cell_length_b       8.161702176744672
_cell_length_c       8.16170206972631
_cell_angle_alpha    59.999997984197186
_cell_angle_beta     60.00000005084219
_cell_angle_gamma    60.000000404013136

_space_group_name_H-M_alt    "P 1"
_space_group_IT_number       1

loop_
  _space_group_symop_operation_xyz
  'x, y, z'

loop_
  _atom_site_type_symbol
  _atom_site_label
  _atom_site_symmetry_multiplicity
  _atom_site_fract_x
  _atom_site_fract_y
  _atom_site_fract_z
  _atom_site_occupancy
  Au  Au1       1.0  0.24999999668303025  0.2500000233902465  0.2500000130820856  1.0000
  Au  Au2       1.0  0.7499999739299481  0.7500000251527467  0.7499999864988706  1.0000
  Pb  Pb1       1.0  0.9999999893830576  0.9999999384754055  8.140445083577364e-08  1.0000
  I   I1        1.0  0.2752170525369753  0.27521704814523124  0.7247829558032612  1.0000
  I   I2        1.0  0.7247829867577852  0.7247829598815673  0.27521702969490214  1.0000
  I   I3        1.0  0.7247829845806385  0.27521700939760285  0.2752170310528051  1.0000
  I   I4        1.0  0.27521705365734933  0.7247829551118024  0.7247829154707105  1.0000
  I   I5        1.0  0.2752170175629197  0.7247828882098161  0.27521708001869405  1.0000
  I   I6        1.0  0.7247829485629834  0.27521714832837896  0.7247829057539756  1.0000
