data_image0
_chemical_formula_structural       Au2PdI6
_chemical_formula_sum              "Au2 Pd1 I6"
_cell_length_a       7.488326112606649
_cell_length_b       7.488325842294827
_cell_length_c       7.4883260794294415
_cell_angle_alpha    59.9999997271052
_cell_angle_beta     59.99999899213387
_cell_angle_gamma    59.99999865533648

_space_group_name_H-M_alt    "P 1"
_space_group_IT_number       1

loop_
  _space_group_symop_operation_xyz
  'x, y, z'

loop_
  _atom_site_type_symbol
  _atom_site_label
  _atom_site_symmetry_multiplicity
  _atom_site_fract_x
  _atom_site_fract_y
  _atom_site_fract_z
  _atom_site_occupancy
  Au  Au1       1.0  0.25000002618614  0.25000000866365  0.24999995385200993  1.0000
  Au  Au2       1.0  0.7499999575500951  0.7500000374397232  0.7499998896275679  1.0000
  Pd  Pd1       1.0  3.274012167050797e-08  8.177695087907515e-09  6.249330030564299e-09  1.0000
  I   I1        1.0  0.25573399773432764  0.2557338763150448  0.7442660356092692  1.0000
  I   I2        1.0  0.7442660078411889  0.7442660487584463  0.25573405644198616  1.0000
  I   I3        1.0  0.7442660573529531  0.25573391153849057  0.25573395429559986  1.0000
  I   I4        1.0  0.2557339740463771  0.744266060965631  0.7442661037992575  1.0000
  I   I5        1.0  0.2557339199091143  0.7442660692642665  0.2557339806559982  1.0000
  I   I6        1.0  0.7442660346226397  0.2557339719324916  0.744266017426557  1.0000
