data_image0
_chemical_formula_structural       Au2PdCl6
_chemical_formula_sum              "Au2 Pd1 Cl6"
_cell_length_a       7.015565657606143
_cell_length_b       7.015565100113544
_cell_length_c       7.015564205273962
_cell_angle_alpha    60.000003011305544
_cell_angle_beta     60.00000509928561
_cell_angle_gamma    60.000006968695544

_space_group_name_H-M_alt    "P 1"
_space_group_IT_number       1

loop_
  _space_group_symop_operation_xyz
  'x, y, z'

loop_
  _atom_site_type_symbol
  _atom_site_label
  _atom_site_symmetry_multiplicity
  _atom_site_fract_x
  _atom_site_fract_y
  _atom_site_fract_z
  _atom_site_occupancy
  Au  Au1       1.0  0.2499999763828758  0.25000034374106805  0.24999967718146665  1.0000
  Au  Au2       1.0  0.7499999856377013  0.7500002840406511  0.7499999613060095  1.0000
  Pd  Pd1       1.0  1.524683478223658e-08  0.9999999196953354  0.999999854353652  1.0000
  Cl  Cl1       1.0  0.2361741970962786  0.23617414511507892  0.7638260053165375  1.0000
  Cl  Cl2       1.0  0.7638258689451476  0.7638257459586155  0.2361741191373825  1.0000
  Cl  Cl3       1.0  0.7638256534388619  0.23617420862687719  0.2361744867238434  1.0000
  Cl  Cl4       1.0  0.23617426631900154  0.7638254991426762  0.7638258381589849  1.0000
  Cl  Cl5       1.0  0.23617436986480084  0.7638256163558882  0.23617434983083116  1.0000
  Cl  Cl6       1.0  0.7638256685127732  0.23617422932821047  0.763825735603502  1.0000
