data_image0
_chemical_formula_structural       Au2PCl6
_chemical_formula_sum              "Au2 P1 Cl6"
_cell_length_a       7.625262206534909
_cell_length_b       7.6252620441666625
_cell_length_c       7.625262279578544
_cell_angle_alpha    60.00000405235226
_cell_angle_beta     59.99999962714076
_cell_angle_gamma    60.00000118066052

_space_group_name_H-M_alt    "P 1"
_space_group_IT_number       1

loop_
  _space_group_symop_operation_xyz
  'x, y, z'

loop_
  _atom_site_type_symbol
  _atom_site_label
  _atom_site_symmetry_multiplicity
  _atom_site_fract_x
  _atom_site_fract_y
  _atom_site_fract_z
  _atom_site_occupancy
  Au  Au1       1.0  0.24999991332238564  0.24999993087159875  0.25000006118221135  1.0000
  Au  Au2       1.0  0.7499999284236876  0.7500001540024871  0.7499999204274099  1.0000
  P   P1        1.0  1.7300410613010636e-08  0.9999999662704802  0.9999999754287958  1.0000
  Cl  Cl1       1.0  0.20013382805768912  0.20013375092196473  0.7998662037289247  1.0000
  Cl  Cl2       1.0  0.7998662956885297  0.7998662102772189  0.20013366462088222  1.0000
  Cl  Cl3       1.0  0.7998661599412612  0.2001338142007429  0.20013371327825372  1.0000
  Cl  Cl4       1.0  0.200133805644965  0.7998660763270745  0.7998663311244542  1.0000
  Cl  Cl5       1.0  0.20013382065712598  0.7998661685934009  0.2001337801195279  1.0000
  Cl  Cl6       1.0  0.7998662574130522  0.20013391146219156  0.7998662627803778  1.0000
