data_image0
_chemical_formula_structural       Au2PBr6
_chemical_formula_sum              "Au2 P1 Br6"
_cell_length_a       7.682831236593801
_cell_length_b       7.682830719904913
_cell_length_c       7.682831398155909
_cell_angle_alpha    60.000001411972995
_cell_angle_beta     59.99999931441412
_cell_angle_gamma    59.99999897290796

_space_group_name_H-M_alt    "P 1"
_space_group_IT_number       1

loop_
  _space_group_symop_operation_xyz
  'x, y, z'

loop_
  _atom_site_type_symbol
  _atom_site_label
  _atom_site_symmetry_multiplicity
  _atom_site_fract_x
  _atom_site_fract_y
  _atom_site_fract_z
  _atom_site_occupancy
  Au  Au1       1.0  0.25000006333285807  0.25000000653324134  0.24999990570789674  1.0000
  Au  Au2       1.0  0.7499999928526464  0.7500000068466759  0.7500000042976634  1.0000
  P   P1        1.0  0.9999999747959899  1.6578976387109275e-07  1.4311354025250628e-08  1.0000
  Br  Br1       1.0  0.2179331501563838  0.21793308914086804  0.7820668864417636  1.0000
  Br  Br2       1.0  0.7820668376535016  0.7820668317793791  0.2179331690616117  1.0000
  Br  Br3       1.0  0.7820669073203185  0.21793306090083  0.2179331657175424  1.0000
  Br  Br4       1.0  0.2179330600393581  0.7820669078433824  0.7820667927963344  1.0000
  Br  Br5       1.0  0.21793311132457754  0.782066825958567  0.2179332022174015  1.0000
  Br  Br6       1.0  0.7820669300918581  0.21793304235531324  0.7820668397698459  1.0000
