data_image0
_chemical_formula_structural       Au2PdF6
_chemical_formula_sum              "Au2 Pd1 F6"
_cell_length_a       5.645253835154482
_cell_length_b       5.645253414938069
_cell_length_c       5.645253599810448
_cell_angle_alpha    60.00000101354135
_cell_angle_beta     60.000001229710996
_cell_angle_gamma    60.00000067604323

_space_group_name_H-M_alt    "P 1"
_space_group_IT_number       1

loop_
  _space_group_symop_operation_xyz
  'x, y, z'

loop_
  _atom_site_type_symbol
  _atom_site_label
  _atom_site_symmetry_multiplicity
  _atom_site_fract_x
  _atom_site_fract_y
  _atom_site_fract_z
  _atom_site_occupancy
  Au  Au1       1.0  0.2500000476904906  0.25000004725625324  0.24999998102257118  1.0000
  Au  Au2       1.0  0.7500000300372676  0.7500000267845842  0.7499999029651362  1.0000
  Pd  Pd1       1.0  0.999999992520138  3.4712202773537544e-08  1.1183424620509414e-08  1.0000
  F   F1        1.0  0.24469888682202776  0.2446988834147834  0.755301118516708  1.0000
  F   F2        1.0  0.7553011401846382  0.7553010973370117  0.2446989136462483  1.0000
  F   F3        1.0  0.7553010589080171  0.24469887327447648  0.2446988969003778  1.0000
  F   F4        1.0  0.2446989149386029  0.7553010705956021  0.7553011483982663  1.0000
  F   F5        1.0  0.24469885631619695  0.7553010646787878  0.24469891293329915  1.0000
  F   F6        1.0  0.7553010868488839  0.24469887919128994  0.7553011282207193  1.0000
