data_image0
_chemical_formula_structural       Au2PI6
_chemical_formula_sum              "Au2 P1 I6"
_cell_length_a       7.597273613929776
_cell_length_b       7.597273526485705
_cell_length_c       7.597273586153836
_cell_angle_alpha    60.00000086970187
_cell_angle_beta     59.99999941102012
_cell_angle_gamma    60.00000127573109

_space_group_name_H-M_alt    "P 1"
_space_group_IT_number       1

loop_
  _space_group_symop_operation_xyz
  'x, y, z'

loop_
  _atom_site_type_symbol
  _atom_site_label
  _atom_site_symmetry_multiplicity
  _atom_site_fract_x
  _atom_site_fract_y
  _atom_site_fract_z
  _atom_site_occupancy
  Au  Au1       1.0  0.2499999970934513  0.24999997458951298  0.2500000290251478  1.0000
  Au  Au2       1.0  0.7500000118975927  0.7499999850277581  0.750000017179458  1.0000
  P   P1        1.0  6.416702706139032e-09  3.5465863610019167e-08  0.9999999619473154  1.0000
  I   I1        1.0  0.25593020826124924  0.25593023110581375  0.7440697671554057  1.0000
  I   I2        1.0  0.7440697557310759  0.7440697768739973  0.2559302194517768  1.0000
  I   I3        1.0  0.7440697534354844  0.2559302545328303  0.25593024008856874  1.0000
  I   I4        1.0  0.2559302726114788  0.7440697405503042  0.744069740367296  1.0000
  I   I5        1.0  0.2559302823849121  0.7440697217059107  0.25593028566849746  1.0000
  I   I6        1.0  0.7440697100401203  0.25593028304973225  0.7440697357198351  1.0000
