data_image0
_chemical_formula_structural       Au2PdBr6
_chemical_formula_sum              "Au2 Pd1 Br6"
_cell_length_a       7.193490212160351
_cell_length_b       7.193490233773586
_cell_length_c       7.193490101222874
_cell_angle_alpha    60.00000035700589
_cell_angle_beta     60.00000071085599
_cell_angle_gamma    59.99999928550182

_space_group_name_H-M_alt    "P 1"
_space_group_IT_number       1

loop_
  _space_group_symop_operation_xyz
  'x, y, z'

loop_
  _atom_site_type_symbol
  _atom_site_label
  _atom_site_symmetry_multiplicity
  _atom_site_fract_x
  _atom_site_fract_y
  _atom_site_fract_z
  _atom_site_occupancy
  Au  Au1       1.0  0.25000000839080144  0.2500000131450211  0.2499999848787185  1.0000
  Au  Au2       1.0  0.7500000027329888  0.7499999815475511  0.7500000226025352  1.0000
  Pd  Pd1       1.0  0.999999970733582  0.9999999914871308  3.001080991157031e-08  1.0000
  Br  Br1       1.0  0.2458798344396468  0.24587983873161162  0.7541201603677617  1.0000
  Br  Br2       1.0  0.7541201917791518  0.7541201780944211  0.24587980069634163  1.0000
  Br  Br3       1.0  0.7541202053392309  0.2458798097018233  0.245879773969752  1.0000
  Br  Br4       1.0  0.2458797994611231  0.7541201798830273  0.7541202239354768  1.0000
  Br  Br5       1.0  0.24587978231855867  0.75412020896467  0.2458797785471797  1.0000
  Br  Br6       1.0  0.7541202017922055  0.24587979934849366  0.7541202203386874  1.0000
