data_image0
_chemical_formula_structural       Au2PbBr6
_chemical_formula_sum              "Au2 Pb1 Br6"
_cell_length_a       7.395609893236474
_cell_length_b       7.39560978109146
_cell_length_c       7.3956099198803615
_cell_angle_alpha    59.9999996543964
_cell_angle_beta     59.99999955438233
_cell_angle_gamma    60.00000118790998

_space_group_name_H-M_alt    "P 1"
_space_group_IT_number       1

loop_
  _space_group_symop_operation_xyz
  'x, y, z'

loop_
  _atom_site_type_symbol
  _atom_site_label
  _atom_site_symmetry_multiplicity
  _atom_site_fract_x
  _atom_site_fract_y
  _atom_site_fract_z
  _atom_site_occupancy
  Au  Au1       1.0  0.24999999799995024  0.24999999424864586  0.2500000078434036  1.0000
  Au  Au2       1.0  0.7500000530625995  0.7499999694975937  0.7499999911579337  1.0000
  Pb  Pb1       1.0  1.1311140586902133e-07  0.9999999089176308  4.4423775609764744e-08  1.0000
  Br  Br1       1.0  0.26183388116438044  0.2618339499633603  0.738166087055182  1.0000
  Br  Br2       1.0  0.7381660952518097  0.7381661346740256  0.26183388476730174  1.0000
  Br  Br3       1.0  0.7381660507534216  0.261833953061418  0.2618339078845687  1.0000
  Br  Br4       1.0  0.26183389684984876  0.7381660868628029  0.7381660520234308  1.0000
  Br  Br5       1.0  0.26183385200003745  0.7381660715409397  0.2618339366657469  1.0000
  Br  Br6       1.0  0.7381660635729373  0.2618339286382458  0.7381660902294488  1.0000
