data_image0
_chemical_formula_structural       Au2PtBr6
_chemical_formula_sum              "Au2 Pt1 Br6"
_cell_length_a       7.219904157662715
_cell_length_b       7.219904114249026
_cell_length_c       7.21990407279678
_cell_angle_alpha    60.000000637293205
_cell_angle_beta     60.000000274943645
_cell_angle_gamma    59.999999960500304

_space_group_name_H-M_alt    "P 1"
_space_group_IT_number       1

loop_
  _space_group_symop_operation_xyz
  'x, y, z'

loop_
  _atom_site_type_symbol
  _atom_site_label
  _atom_site_symmetry_multiplicity
  _atom_site_fract_x
  _atom_site_fract_y
  _atom_site_fract_z
  _atom_site_occupancy
  Au  Au1       1.0  0.25000001803151845  0.24999999454090532  0.2500000059231787  1.0000
  Au  Au2       1.0  0.7499999622703125  0.7499999904080966  0.7500000519786076  1.0000
  Pt  Pt1       1.0  0.9999998336835255  1.391002955999053e-07  8.424614770816137e-08  1.0000
  Br  Br1       1.0  0.2430364254770655  0.24303643300493186  0.7569635599036673  1.0000
  Br  Br2       1.0  0.7569635597031242  0.7569635756929004  0.24303642551200647  1.0000
  Br  Br3       1.0  0.7569636666688722  0.2430363483924855  0.2430362859072848  1.0000
  Br  Br4       1.0  0.24303648679853887  0.7569635296867759  0.7569635587887873  1.0000
  Br  Br5       1.0  0.2430364295908072  0.7569635879276435  0.24303637965769026  1.0000
  Br  Br6       1.0  0.7569636189167418  0.2430363987177032  0.7569636488333046  1.0000
