data_image0
_chemical_formula_structural       Au2PtF6
_chemical_formula_sum              "Au2 Pt1 F6"
_cell_length_a       5.822819993149678
_cell_length_b       5.8228203397882305
_cell_length_c       5.822819974747015
_cell_angle_alpha    60.0000025500277
_cell_angle_beta     60.00000113950072
_cell_angle_gamma    60.00000137420797

_space_group_name_H-M_alt    "P 1"
_space_group_IT_number       1

loop_
  _space_group_symop_operation_xyz
  'x, y, z'

loop_
  _atom_site_type_symbol
  _atom_site_label
  _atom_site_symmetry_multiplicity
  _atom_site_fract_x
  _atom_site_fract_y
  _atom_site_fract_z
  _atom_site_occupancy
  Au  Au1       1.0  0.2500000293681213  0.25000007733619556  0.2499999241933526  1.0000
  Au  Au2       1.0  0.7499999156022624  0.7499999880196069  0.7500000048689293  1.0000
  Pt  Pt1       1.0  5.60186214562925e-10  3.996371249321559e-08  0.9999999350861465  1.0000
  F   F1        1.0  0.23838872777231504  0.23838875825332298  0.7616112846551994  1.0000
  F   F2        1.0  0.7616113016895449  0.7616112440018799  0.23838876423259536  1.0000
  F   F3        1.0  0.7616112633474008  0.23838867786842535  0.23838869301712518  1.0000
  F   F4        1.0  0.23838873056029738  0.7616112823197119  0.7616112899210462  1.0000
  F   F5        1.0  0.23838875386836297  0.7616112079239974  0.2383887389103947  1.0000
  F   F6        1.0  0.7616112530203342  0.23838869547360095  0.7616113414973072  1.0000
