data_image0
_chemical_formula_structural       Au2PtCl6
_chemical_formula_sum              "Au2 Pt1 Cl6"
_cell_length_a       7.097156029593939
_cell_length_b       7.097156767864782
_cell_length_c       7.097155397850111
_cell_angle_alpha    60.00000226110539
_cell_angle_beta     60.000004850979934
_cell_angle_gamma    60.00000622998459

_space_group_name_H-M_alt    "P 1"
_space_group_IT_number       1

loop_
  _space_group_symop_operation_xyz
  'x, y, z'

loop_
  _atom_site_type_symbol
  _atom_site_label
  _atom_site_symmetry_multiplicity
  _atom_site_fract_x
  _atom_site_fract_y
  _atom_site_fract_z
  _atom_site_occupancy
  Au  Au1       1.0  0.24999998639936083  0.2499994729521178  0.2500001591998002  1.0000
  Au  Au2       1.0  0.7500002612537895  0.7499997286503086  0.7500002211904703  1.0000
  Pt  Pt1       1.0  7.485848874369841e-08  0.9999999706633795  0.9999999518767938  1.0000
  Cl  Cl1       1.0  0.2323639803406853  0.2323641981684665  0.7676358902450116  1.0000
  Cl  Cl2       1.0  0.767635936158764  0.7676361872530216  0.23236387641351192  1.0000
  Cl  Cl3       1.0  0.7676359944264346  0.23236420059639168  0.23236393226086985  1.0000
  Cl  Cl4       1.0  0.2323638826333713  0.7676360346906029  0.7676360221797313  1.0000
  Cl  Cl5       1.0  0.23236397730289707  0.7676360273347339  0.23236396501298762  1.0000
  Cl  Cl6       1.0  0.7676359327732474  0.2323642114036349  0.7676358626995852  1.0000
