data_image0
_chemical_formula_structural       Au2ReF6
_chemical_formula_sum              "Au2 Re1 F6"
_cell_length_a       11.104649425106265
_cell_length_b       11.10464399466187
_cell_length_c       11.10465153659659
_cell_angle_alpha    59.99998982308529
_cell_angle_beta     60.00001179214693
_cell_angle_gamma    59.99999904879188

_space_group_name_H-M_alt    "P 1"
_space_group_IT_number       1

loop_
  _space_group_symop_operation_xyz
  'x, y, z'

loop_
  _atom_site_type_symbol
  _atom_site_label
  _atom_site_symmetry_multiplicity
  _atom_site_fract_x
  _atom_site_fract_y
  _atom_site_fract_z
  _atom_site_occupancy
  Au  Au1       1.0  0.2500002184698602  0.2499998332211949  0.24999969129370866  1.0000
  Au  Au2       1.0  0.7499997568294577  0.7500004172867362  0.7499999477731567  1.0000
  Re  Re1       1.0  0.9999979344342692  3.7510049806770915e-06  0.9999968348302576  1.0000
  F   F1        1.0  0.11929049320224283  0.11928786076539341  0.8807109443582826  1.0000
  F   F2        1.0  0.8807088595935659  0.8807111346280665  0.11928987665872455  1.0000
  F   F3        1.0  0.8807113368324178  0.11928803479824358  0.11929061220598677  1.0000
  F   F4        1.0  0.11928920880527479  0.8807113344826711  0.8807091606926309  1.0000
  F   F5        1.0  0.11929037173873774  0.8807106363264878  0.11929128704493977  1.0000
  F   F6        1.0  0.8807122578364232  0.11928674550655145  0.8807111580905653  1.0000
