data_image0
_chemical_formula_structural       Au2RhCl6
_chemical_formula_sum              "Au2 Rh1 Cl6"
_cell_length_a       7.011871236096314
_cell_length_b       7.011871991375248
_cell_length_c       7.011871202232475
_cell_angle_alpha    59.99999852623665
_cell_angle_beta     59.99999968673893
_cell_angle_gamma    59.999990954702845

_space_group_name_H-M_alt    "P 1"
_space_group_IT_number       1

loop_
  _space_group_symop_operation_xyz
  'x, y, z'

loop_
  _atom_site_type_symbol
  _atom_site_label
  _atom_site_symmetry_multiplicity
  _atom_site_fract_x
  _atom_site_fract_y
  _atom_site_fract_z
  _atom_site_occupancy
  Au  Au1       1.0  0.24999995648226725  0.25000041488067276  0.2499996351610923  1.0000
  Au  Au2       1.0  0.7500000626915853  0.7499999189169747  0.7499999594677282  1.0000
  Rh  Rh1       1.0  1.6352769469260016e-07  1.4672051061321485e-07  2.55607907738208e-07  1.0000
  Cl  Cl1       1.0  0.2363984256158312  0.23639816996163526  0.7636016732235219  1.0000
  Cl  Cl2       1.0  0.7636014797564538  0.7636016258606507  0.23639849829668372  1.0000
  Cl  Cl3       1.0  0.7636019845504135  0.23639795385458595  0.23639821993068372  1.0000
  Cl  Cl4       1.0  0.23639847235054928  0.7636014175260413  0.7636018381306778  1.0000
  Cl  Cl5       1.0  0.23639798260929895  0.7636019506836753  0.2363981665860245  1.0000
  Cl  Cl6       1.0  0.7636015041553016  0.23639840931412898  0.7636017225057766  1.0000
