data_image0
_chemical_formula_structural       Au2ReI6
_chemical_formula_sum              "Au2 Re1 I6"
_cell_length_a       7.713637591643462
_cell_length_b       7.713637251257267
_cell_length_c       7.713637166690038
_cell_angle_alpha    59.99999902516005
_cell_angle_beta     60.00000144458974
_cell_angle_gamma    59.99999858652582

_space_group_name_H-M_alt    "P 1"
_space_group_IT_number       1

loop_
  _space_group_symop_operation_xyz
  'x, y, z'

loop_
  _atom_site_type_symbol
  _atom_site_label
  _atom_site_symmetry_multiplicity
  _atom_site_fract_x
  _atom_site_fract_y
  _atom_site_fract_z
  _atom_site_occupancy
  Au  Au1       1.0  0.24999998650805647  0.2500000079320626  0.24999999391979444  1.0000
  Au  Au2       1.0  0.7500000528364478  0.749999919003648  0.7500000173168364  1.0000
  Re  Re1       1.0  0.9999999383807144  1.1749466477205131e-07  0.9999999941011992  1.0000
  I   I1        1.0  0.2481908166814697  0.24819077853144825  0.7518092112728727  1.0000
  I   I2        1.0  0.7518091578993789  0.7518092214414868  0.24819081397664736  1.0000
  I   I3        1.0  0.7518092260407603  0.24819077949533808  0.2481907559329261  1.0000
  I   I4        1.0  0.24819082057576958  0.7518092109510028  0.7518091758345966  1.0000
  I   I5        1.0  0.2481907546532491  0.7518092527988586  0.24819075132224097  1.0000
  I   I6        1.0  0.7518092444237917  0.248190718594293  0.7518092824511015  1.0000
