data_image0
_chemical_formula_structural       Au2RuBr6
_chemical_formula_sum              "Au2 Ru1 Br6"
_cell_length_a       7.287397121193727
_cell_length_b       7.287397082026228
_cell_length_c       7.287397092316672
_cell_angle_alpha    60.00000016900639
_cell_angle_beta     60.000000260925006
_cell_angle_gamma    59.99999993153311

_space_group_name_H-M_alt    "P 1"
_space_group_IT_number       1

loop_
  _space_group_symop_operation_xyz
  'x, y, z'

loop_
  _atom_site_type_symbol
  _atom_site_label
  _atom_site_symmetry_multiplicity
  _atom_site_fract_x
  _atom_site_fract_y
  _atom_site_fract_z
  _atom_site_occupancy
  Au  Au1       1.0  0.2500000079931609  0.2500000055310424  0.24999999716242144  1.0000
  Au  Au2       1.0  0.7499999985640745  0.7499999644934673  0.7500000316170303  1.0000
  Ru  Ru1       1.0  0.9999999989125595  0.9999999462197058  0.9999999752890486  1.0000
  Br  Br1       1.0  0.24176173187356056  0.24176172089778514  0.7582382753000366  1.0000
  Br  Br2       1.0  0.7582382966416978  0.7582383163520923  0.2417616841875428  1.0000
  Br  Br3       1.0  0.7582382754316719  0.24176172816639854  0.2417617163861372  1.0000
  Br  Br4       1.0  0.2417616658225376  0.7582383426961629  0.7582383220704432  1.0000
  Br  Br5       1.0  0.24176172134237653  0.7582382929481706  0.24176170588616414  1.0000
  Br  Br6       1.0  0.7582383135439326  0.24176168716014418  0.7582382858478315  1.0000
