data_image0
_chemical_formula_structural       Au2ReBr6
_chemical_formula_sum              "Au2 Re1 Br6"
_cell_length_a       7.505705819885206
_cell_length_b       7.505705883407832
_cell_length_c       7.505705914022621
_cell_angle_alpha    60.00000019840473
_cell_angle_beta     59.99999892351447
_cell_angle_gamma    59.99999914026698

_space_group_name_H-M_alt    "P 1"
_space_group_IT_number       1

loop_
  _space_group_symop_operation_xyz
  'x, y, z'

loop_
  _atom_site_type_symbol
  _atom_site_label
  _atom_site_symmetry_multiplicity
  _atom_site_fract_x
  _atom_site_fract_y
  _atom_site_fract_z
  _atom_site_occupancy
  Au  Au1       1.0  0.2500000222574698  0.2500000250694963  0.24999996012665485  1.0000
  Au  Au2       1.0  0.7499999675370205  0.7500000083066685  0.7499999940919232  1.0000
  Re  Re1       1.0  4.9091163631933134e-08  0.99999992657117  0.9999998736075819  1.0000
  Br  Br1       1.0  0.23562116434572214  0.2356210727443104  0.7643789029839345  1.0000
  Br  Br2       1.0  0.7643788509968679  0.7643789116793018  0.23562109624486255  1.0000
  Br  Br3       1.0  0.7643788455304484  0.23562119774462484  0.23562115097644698  1.0000
  Br  Br4       1.0  0.23562103851490832  0.7643789221143846  0.7643789594304454  1.0000
  Br  Br5       1.0  0.2356211440164929  0.7643788192575929  0.23562117097100746  1.0000
  Br  Br6       1.0  0.7643789192361028  0.23562109989594937  0.7643789075507665  1.0000
