data_image0
_chemical_formula_structural       Au2RuCl6
_chemical_formula_sum              "Au2 Ru1 Cl6"
_cell_length_a       7.498615598746387
_cell_length_b       7.4986165449193996
_cell_length_c       7.498616952194988
_cell_angle_alpha    59.99999356172122
_cell_angle_beta     59.99999819692885
_cell_angle_gamma    59.999998370378975

_space_group_name_H-M_alt    "P 1"
_space_group_IT_number       1

loop_
  _space_group_symop_operation_xyz
  'x, y, z'

loop_
  _atom_site_type_symbol
  _atom_site_label
  _atom_site_symmetry_multiplicity
  _atom_site_fract_x
  _atom_site_fract_y
  _atom_site_fract_z
  _atom_site_occupancy
  Au  Au1       1.0  0.24999995325104968  0.2499996945534374  0.2500001557189213  1.0000
  Au  Au2       1.0  0.7499988248057394  0.7500002759653424  0.750000099091181  1.0000
  Ru  Ru1       1.0  2.753564326206421e-07  1.763958157062311e-07  0.999999672771855  1.0000
  Cl  Cl1       1.0  0.2185014789971522  0.21850065585741657  0.7814990635216256  1.0000
  Cl  Cl2       1.0  0.7814990022045284  0.7814992591293013  0.21850101026731805  1.0000
  Cl  Cl3       1.0  0.7814992364954294  0.21850082247530178  0.21850088494296185  1.0000
  Cl  Cl4       1.0  0.21850108466488685  0.7814992215417007  0.7814989669744048  1.0000
  Cl  Cl5       1.0  0.2185009479308535  0.7814990803696088  0.21850101215709145  1.0000
  Cl  Cl6       1.0  0.7814992293049376  0.2185009473144449  0.7814989758993369  1.0000
