data_image0
_chemical_formula_structural       Au2RhF6
_chemical_formula_sum              "Au2 Rh1 F6"
_cell_length_a       5.6902619234122245
_cell_length_b       5.690261616204092
_cell_length_c       5.690261664229808
_cell_angle_alpha    60.00000079620695
_cell_angle_beta     60.000003529271915
_cell_angle_gamma    60.000001329920515

_space_group_name_H-M_alt    "P 1"
_space_group_IT_number       1

loop_
  _space_group_symop_operation_xyz
  'x, y, z'

loop_
  _atom_site_type_symbol
  _atom_site_label
  _atom_site_symmetry_multiplicity
  _atom_site_fract_x
  _atom_site_fract_y
  _atom_site_fract_z
  _atom_site_occupancy
  Au  Au1       1.0  0.2500000928206878  0.25000001407318656  0.24999996082150613  1.0000
  Au  Au2       1.0  0.7500000820356386  0.7499999496683997  0.7499998389127451  1.0000
  Rh  Rh1       1.0  0.9999999509285422  1.9371171699174482e-08  3.5938803563681496e-08  1.0000
  F   F1        1.0  0.24240837280042038  0.24240831606946883  0.7575916780710279  1.0000
  F   F2        1.0  0.7575916703792623  0.7575916713479937  0.2424083689763324  1.0000
  F   F3        1.0  0.7575916862165645  0.2424082618538387  0.24240831514071098  1.0000
  F   F4        1.0  0.24240832929208833  0.7575916868212786  0.7575917369951213  1.0000
  F   F5        1.0  0.24240824162115587  0.757591693087468  0.24240828122874153  1.0000
  F   F6        1.0  0.7575915739932894  0.2424083804240899  0.7575917732882037  1.0000
