data_image0
_chemical_formula_structural       Au2ReCl6
_chemical_formula_sum              "Au2 Re1 Cl6"
_cell_length_a       7.773877287486464
_cell_length_b       7.773876870645782
_cell_length_c       7.773876756045584
_cell_angle_alpha    60.00000595931631
_cell_angle_beta     60.00000633733769
_cell_angle_gamma    59.99999547648407

_space_group_name_H-M_alt    "P 1"
_space_group_IT_number       1

loop_
  _space_group_symop_operation_xyz
  'x, y, z'

loop_
  _atom_site_type_symbol
  _atom_site_label
  _atom_site_symmetry_multiplicity
  _atom_site_fract_x
  _atom_site_fract_y
  _atom_site_fract_z
  _atom_site_occupancy
  Au  Au1       1.0  0.2499998672309176  0.2499997622165705  0.25000000804291705  1.0000
  Au  Au2       1.0  0.749999869054311  0.7500003516620957  0.7499998750583401  1.0000
  Re  Re1       1.0  0.9999998553304339  2.6467766103863735e-07  2.564403891358961e-07  1.0000
  Cl  Cl1       1.0  0.21126120656997022  0.21126126164004044  0.7887388073746096  1.0000
  Cl  Cl2       1.0  0.788738818897121  0.7887387466826463  0.21126112798597135  1.0000
  Cl  Cl3       1.0  0.7887390901367102  0.21126096320576693  0.2112611355910371  1.0000
  Cl  Cl4       1.0  0.21126161419420922  0.7887384968560399  0.7887385595231797  1.0000
  Cl  Cl5       1.0  0.21126091958365484  0.7887389409936778  0.21126144774158984  1.0000
  Cl  Cl6       1.0  0.7887387489129783  0.2112613004974421  0.788738778491988  1.0000
