data_image0
_chemical_formula_structural       Au2SiBr6
_chemical_formula_sum              "Au2 Si1 Br6"
_cell_length_a       7.388917128241432
_cell_length_b       7.388916899572918
_cell_length_c       7.388916739993661
_cell_angle_alpha    59.99999967580846
_cell_angle_beta     59.9999992913113
_cell_angle_gamma    59.99999609806605

_space_group_name_H-M_alt    "P 1"
_space_group_IT_number       1

loop_
  _space_group_symop_operation_xyz
  'x, y, z'

loop_
  _atom_site_type_symbol
  _atom_site_label
  _atom_site_symmetry_multiplicity
  _atom_site_fract_x
  _atom_site_fract_y
  _atom_site_fract_z
  _atom_site_occupancy
  Au  Au1       1.0  0.2500000362413816  0.2499999802159453  0.24999994593843805  1.0000
  Au  Au2       1.0  0.7500000213836563  0.7499999588808138  0.749999994173123  1.0000
  Si  Si1       1.0  1.7000621031812856e-08  9.945258701764625e-09  0.9999999391588172  1.0000
  Br  Br1       1.0  0.2297637506575693  0.22976376077841087  0.7702363383805633  1.0000
  Br  Br2       1.0  0.7702362401945437  0.7702362379899053  0.22976378934113928  1.0000
  Br  Br3       1.0  0.7702364023503236  0.22976370759928585  0.22976366969215886  1.0000
  Br  Br4       1.0  0.22976368992326499  0.7702362447578175  0.7702362586453595  1.0000
  Br  Br5       1.0  0.22976366531758113  0.7702363538644369  0.22976373300845276  1.0000
  Br  Br6       1.0  0.7702361861006284  0.22976377253471061  0.7702362733972218  1.0000
