data_image0
_chemical_formula_structural       Au2SI6
_chemical_formula_sum              "Au2 S1 I6"
_cell_length_a       7.563349585013374
_cell_length_b       7.563349666211059
_cell_length_c       7.56334962551346
_cell_angle_alpha    60.00000042322379
_cell_angle_beta     59.9999986468483
_cell_angle_gamma    59.999999451319646

_space_group_name_H-M_alt    "P 1"
_space_group_IT_number       1

loop_
  _space_group_symop_operation_xyz
  'x, y, z'

loop_
  _atom_site_type_symbol
  _atom_site_label
  _atom_site_symmetry_multiplicity
  _atom_site_fract_x
  _atom_site_fract_y
  _atom_site_fract_z
  _atom_site_occupancy
  Au  Au1       1.0  0.24999999182780455  0.2499999831879452  0.25000000640252806  1.0000
  Au  Au2       1.0  0.749999996209016  0.7499999835694591  0.7499999944863023  1.0000
  S   S1        1.0  0.9999999209499892  3.562493934756769e-08  0.9999999846919022  1.0000
  I   I1        1.0  0.2668922637348886  0.2668922963643106  0.7331077279213106  1.0000
  I   I2        1.0  0.7331077161735755  0.7331077497395488  0.26689227966776685  1.0000
  I   I3        1.0  0.7331077376724772  0.2668922747224525  0.26689223489299546  1.0000
  I   I4        1.0  0.26689231493312654  0.7331076952735814  0.7331076871385007  1.0000
  I   I5        1.0  0.2668923337941898  0.7331076919057298  0.26689231918889234  1.0000
  I   I6        1.0  0.7331077221267631  0.26689229104482876  0.733107761300521  1.0000
