data_image0
_chemical_formula_structural       Au2SiI6
_chemical_formula_sum              "Au2 Si1 I6"
_cell_length_a       7.647298314993809
_cell_length_b       7.647298163006978
_cell_length_c       7.64729811097816
_cell_angle_alpha    60.00000040878392
_cell_angle_beta     60.00000006635689
_cell_angle_gamma    59.999998713301494

_space_group_name_H-M_alt    "P 1"
_space_group_IT_number       1

loop_
  _space_group_symop_operation_xyz
  'x, y, z'

loop_
  _atom_site_type_symbol
  _atom_site_label
  _atom_site_symmetry_multiplicity
  _atom_site_fract_x
  _atom_site_fract_y
  _atom_site_fract_z
  _atom_site_occupancy
  Au  Au1       1.0  0.2499999971876255  0.2500000045170772  0.25000000377323933  1.0000
  Au  Au2       1.0  0.7500000216257509  0.7499999414819613  0.7499999826321629  1.0000
  Si  Si1       1.0  0.9999999786775725  9.609236196912326e-09  0.9999999980106874  1.0000
  I   I1        1.0  0.24742850955996334  0.24742851313338965  0.7525714886504704  1.0000
  I   I2        1.0  0.7525714744932299  0.7525714873179865  0.24742853367665377  1.0000
  I   I3        1.0  0.7525715319726829  0.24742851792118445  0.2474284738746227  1.0000
  I   I4        1.0  0.2474285121119654  0.7525715017486625  0.7525714722132993  1.0000
  I   I5        1.0  0.24742850061846483  0.7525714943340921  0.24742852085422617  1.0000
  I   I6        1.0  0.7525714800484622  0.2474285253357561  0.7525715157868688  1.0000
