data_image0
_chemical_formula_structural       Au2SeCl6
_chemical_formula_sum              "Au2 Se1 Cl6"
_cell_length_a       7.215712914361965
_cell_length_b       7.215712631194393
_cell_length_c       7.2157128766598895
_cell_angle_alpha    60.0000005703077
_cell_angle_beta     60.00000084190967
_cell_angle_gamma    59.99999688807878

_space_group_name_H-M_alt    "P 1"
_space_group_IT_number       1

loop_
  _space_group_symop_operation_xyz
  'x, y, z'

loop_
  _atom_site_type_symbol
  _atom_site_label
  _atom_site_symmetry_multiplicity
  _atom_site_fract_x
  _atom_site_fract_y
  _atom_site_fract_z
  _atom_site_occupancy
  Au  Au1       1.0  0.25000007253672035  0.24999991737532543  0.24999994322170874  1.0000
  Au  Au2       1.0  0.7500001718764409  0.7500000525534719  0.749999863078519  1.0000
  Se  Se1       1.0  0.9999998760063887  0.9999998727002155  0.9999998831204158  1.0000
  Cl  Cl1       1.0  0.23438173422370578  0.23438177875702745  0.7656183077533629  1.0000
  Cl  Cl2       1.0  0.7656183163944881  0.7656183116822427  0.2343817583132899  1.0000
  Cl  Cl3       1.0  0.7656184027638467  0.23438161774766023  0.23438160666632213  1.0000
  Cl  Cl4       1.0  0.23438144998807883  0.7656184709942849  0.765618506519277  1.0000
  Cl  Cl5       1.0  0.23438157140384397  0.7656183840487493  0.23438163638787643  1.0000
  Cl  Cl6       1.0  0.7656184314673666  0.23438158078806673  0.765618427658168  1.0000
