data_image0
_chemical_formula_structural       Au2SeF6
_chemical_formula_sum              "Au2 Se1 F6"
_cell_length_a       7.955212901208782
_cell_length_b       7.955212371664131
_cell_length_c       7.955214649821143
_cell_angle_alpha    59.999980149509724
_cell_angle_beta     59.99998218160535
_cell_angle_gamma    59.999974649885175

_space_group_name_H-M_alt    "P 1"
_space_group_IT_number       1

loop_
  _space_group_symop_operation_xyz
  'x, y, z'

loop_
  _atom_site_type_symbol
  _atom_site_label
  _atom_site_symmetry_multiplicity
  _atom_site_fract_x
  _atom_site_fract_y
  _atom_site_fract_z
  _atom_site_occupancy
  Au  Au1       1.0  0.25000058734498587  0.2499998683705234  0.25000005756317356  1.0000
  Au  Au2       1.0  0.7499995511150772  0.7500006858765819  0.7499979119476327  1.0000
  Se  Se1       1.0  0.9999999353138298  0.9999999414970553  4.600753297818491e-07  1.0000
  F   F1        1.0  0.15755251360033407  0.15755315446527907  0.8424472705494959  1.0000
  F   F2        1.0  0.842447431908297  0.8424467855010025  0.157553250853916  1.0000
  F   F3        1.0  0.8424470120370233  0.1575530036533976  0.15755303852183042  1.0000
  F   F4        1.0  0.1575529609193801  0.8424468670331028  0.8424475226531454  1.0000
  F   F5        1.0  0.15755317584636738  0.8424472636272647  0.15755289790358978  1.0000
  F   F6        1.0  0.8424468199063123  0.15755275639563374  0.8424476463420763  1.0000
