data_image0
_chemical_formula_structural       Au2SI6
_chemical_formula_sum              "Au2 S1 I6"
_cell_length_a       7.562531260405692
_cell_length_b       7.562531405446764
_cell_length_c       7.562531346784688
_cell_angle_alpha    59.999999925512014
_cell_angle_beta     60.000000274333736
_cell_angle_gamma    60.00000054358569

_space_group_name_H-M_alt    "P 1"
_space_group_IT_number       1

loop_
  _space_group_symop_operation_xyz
  'x, y, z'

loop_
  _atom_site_type_symbol
  _atom_site_label
  _atom_site_symmetry_multiplicity
  _atom_site_fract_x
  _atom_site_fract_y
  _atom_site_fract_z
  _atom_site_occupancy
  Au  Au1       1.0  0.24999999684062896  0.2499999955553702  0.25000000528238525  1.0000
  Au  Au2       1.0  0.750000011527592  0.7500000060999981  0.7499999943050507  1.0000
  S   S1        1.0  0.999999979071024  3.2389811839086044e-09  1.0167305844977305e-08  1.0000
  I   I1        1.0  0.26692542949103665  0.2669254493075372  0.7330745656405222  1.0000
  I   I2        1.0  0.7330745694381012  0.7330745669232467  0.2669254287341303  1.0000
  I   I3        1.0  0.7330745324148616  0.26692546000558504  0.2669254664841615  1.0000
  I   I4        1.0  0.26692547111077847  0.7330745286938583  0.7330745261348247  1.0000
  I   I5        1.0  0.26692546384229326  0.7330745413091538  0.2669254553324238  1.0000
  I   I6        1.0  0.7330745462380386  0.2669254506292706  0.7330745403235774  1.0000
