data_image0
_chemical_formula_structural       Au2SCl6
_chemical_formula_sum              "Au2 S1 Cl6"
_cell_length_a       7.316158466971323
_cell_length_b       7.316157874918309
_cell_length_c       7.316158626168102
_cell_angle_alpha    59.99999944979958
_cell_angle_beta     59.99999740024097
_cell_angle_gamma    60.00000116123097

_space_group_name_H-M_alt    "P 1"
_space_group_IT_number       1

loop_
  _space_group_symop_operation_xyz
  'x, y, z'

loop_
  _atom_site_type_symbol
  _atom_site_label
  _atom_site_symmetry_multiplicity
  _atom_site_fract_x
  _atom_site_fract_y
  _atom_site_fract_z
  _atom_site_occupancy
  Au  Au1       1.0  0.24999994715416837  0.2500000905211819  0.24999990875781244  1.0000
  Au  Au2       1.0  0.7499999812191307  0.7499998949073964  0.7500000989549651  1.0000
  S   S1        1.0  5.600599465332535e-08  0.9999999598233453  1.2587890928237926e-08  1.0000
  Cl  Cl1       1.0  0.22089283720308603  0.22089303310975428  0.7791071353228399  1.0000
  Cl  Cl2       1.0  0.7791071778638875  0.7791069857993798  0.22089292848400993  1.0000
  Cl  Cl3       1.0  0.7791070223777766  0.2208928867369122  0.2208929078413503  1.0000
  Cl  Cl4       1.0  0.22089293260208895  0.7791071656527633  0.7791070640222966  1.0000
  Cl  Cl5       1.0  0.22089295071082904  0.779107105171534  0.22089283116098588  1.0000
  Cl  Cl6       1.0  0.7791070962255534  0.22089287021288315  0.779107096322416  1.0000
