data_image0
_chemical_formula_structural       Au2SnI6
_chemical_formula_sum              "Au2 Sn1 I6"
_cell_length_a       7.856682112913069
_cell_length_b       7.856681952444032
_cell_length_c       7.856682060883607
_cell_angle_alpha    59.999999806384366
_cell_angle_beta     59.99999993120056
_cell_angle_gamma    60.00000011253227

_space_group_name_H-M_alt    "P 1"
_space_group_IT_number       1

loop_
  _space_group_symop_operation_xyz
  'x, y, z'

loop_
  _atom_site_type_symbol
  _atom_site_label
  _atom_site_symmetry_multiplicity
  _atom_site_fract_x
  _atom_site_fract_y
  _atom_site_fract_z
  _atom_site_occupancy
  Au  Au1       1.0  0.25000002072891325  0.24999997964049595  0.25000000353041  1.0000
  Au  Au2       1.0  0.7500000252199202  0.7500000277763733  0.7499999375535263  1.0000
  Sn  Sn1       1.0  1.5305822213365572e-08  0.9999999937645696  6.920021337102706e-09  1.0000
  I   I1        1.0  0.2618921392903156  0.26189211702815285  0.7381078856798245  1.0000
  I   I2        1.0  0.7381078432981913  0.7381078732412824  0.2618921618436921  1.0000
  I   I3        1.0  0.7381078731122296  0.26189211128081025  0.2618921010670547  1.0000
  I   I4        1.0  0.2618921396421593  0.7381078899006284  0.7381078890062636  1.0000
  I   I5        1.0  0.26189209385174644  0.7381079035516143  0.2618920965443013  1.0000
  I   I6        1.0  0.7381078408299697  0.26189210698296966  0.7381079164335635  1.0000
