data_image0
_chemical_formula_structural       Au2SBr6
_chemical_formula_sum              "Au2 S1 Br6"
_cell_length_a       7.210797749202202
_cell_length_b       7.210797712609178
_cell_length_c       7.210797625588307
_cell_angle_alpha    60.00000040141757
_cell_angle_beta     59.99999976883098
_cell_angle_gamma    59.99999978680648

_space_group_name_H-M_alt    "P 1"
_space_group_IT_number       1

loop_
  _space_group_symop_operation_xyz
  'x, y, z'

loop_
  _atom_site_type_symbol
  _atom_site_label
  _atom_site_symmetry_multiplicity
  _atom_site_fract_x
  _atom_site_fract_y
  _atom_site_fract_z
  _atom_site_occupancy
  Au  Au1       1.0  0.24999998242079433  0.25000000679254875  0.2500000173699003  1.0000
  Au  Au2       1.0  0.7499999868270891  0.7500000169806718  0.7500000506675445  1.0000
  S   S1        1.0  5.1323647183805064e-08  2.377882267428816e-08  0.9999999582883373  1.0000
  Br  Br1       1.0  0.2483424734843816  0.24834244092899388  0.7516575238825592  1.0000
  Br  Br2       1.0  0.7516575272409911  0.7516575556684285  0.24834245186144627  1.0000
  Br  Br3       1.0  0.7516575421105918  0.2483424130234277  0.2483424468803348  1.0000
  Br  Br4       1.0  0.24834243564639577  0.7516575563981972  0.7516575497753346  1.0000
  Br  Br5       1.0  0.24834245000754948  0.7516575446764896  0.24834245649948464  1.0000
  Br  Br6       1.0  0.7516575449757269  0.24834244512698353  0.7516575477014896  1.0000
