data_image0
_chemical_formula_structural       Au2SCl6
_chemical_formula_sum              "Au2 S1 Cl6"
_cell_length_a       7.315395507131245
_cell_length_b       7.315395449630597
_cell_length_c       7.315395930996349
_cell_angle_alpha    59.999993502347216
_cell_angle_beta     59.99999949022283
_cell_angle_gamma    59.99999401310569

_space_group_name_H-M_alt    "P 1"
_space_group_IT_number       1

loop_
  _space_group_symop_operation_xyz
  'x, y, z'

loop_
  _atom_site_type_symbol
  _atom_site_label
  _atom_site_symmetry_multiplicity
  _atom_site_fract_x
  _atom_site_fract_y
  _atom_site_fract_z
  _atom_site_occupancy
  Au  Au1       1.0  0.24999979256188282  0.25000031586678134  0.2499998807482111  1.0000
  Au  Au2       1.0  0.7499998750602409  0.7499998627174322  0.7499998895215134  1.0000
  S   S1        1.0  6.647519983070455e-09  6.529387819516626e-08  0.9999999612953389  1.0000
  Cl  Cl1       1.0  0.22091633760438859  0.22091646917560043  0.7790836380859142  1.0000
  Cl  Cl2       1.0  0.7790833880567564  0.7790835352915803  0.22091660988568523  1.0000
  Cl  Cl3       1.0  0.7790836503359285  0.22091636289005162  0.22091663106057932  1.0000
  Cl  Cl4       1.0  0.22091663727362099  0.7790834473696839  0.7790833660585322  1.0000
  Cl  Cl5       1.0  0.220916569176712  0.7790835379492225  0.22091665563708118  1.0000
  Cl  Cl6       1.0  0.779083695024043  0.2209164514501217  0.7790833852778382  1.0000
