data_image0
_chemical_formula_structural       Au2SeBr6
_chemical_formula_sum              "Au2 Se1 Br6"
_cell_length_a       7.414754871336149
_cell_length_b       7.414754977702922
_cell_length_c       7.414754908457095
_cell_angle_alpha    60.000000517766715
_cell_angle_beta     60.00000063864573
_cell_angle_gamma    60.00000043086894

_space_group_name_H-M_alt    "P 1"
_space_group_IT_number       1

loop_
  _space_group_symop_operation_xyz
  'x, y, z'

loop_
  _atom_site_type_symbol
  _atom_site_label
  _atom_site_symmetry_multiplicity
  _atom_site_fract_x
  _atom_site_fract_y
  _atom_site_fract_z
  _atom_site_occupancy
  Au  Au1       1.0  0.2500000077102683  0.24999998574436189  0.25000001675446776  1.0000
  Au  Au2       1.0  0.7500000001949969  0.7500000166967029  0.7500000063749159  1.0000
  Se  Se1       1.0  1.1262763884877339e-08  8.258835690600945e-09  0.9999999861932135  1.0000
  Br  Br1       1.0  0.24580918948879243  0.24580918789479972  0.7541908174443006  1.0000
  Br  Br2       1.0  0.7541907832598118  0.7541907798591553  0.24580919475245178  1.0000
  Br  Br3       1.0  0.7541908010364848  0.24580922011119763  0.24580918947930178  1.0000
  Br  Br4       1.0  0.24580920622372493  0.7541907889369358  0.7541907983011814  1.0000
  Br  Br5       1.0  0.24580919648398877  0.7541908057960575  0.24580919123082254  1.0000
  Br  Br6       1.0  0.7541908112323437  0.24580920655561028  0.7541907906238454  1.0000
