data_image0
_chemical_formula_structural       Au2SiCl6
_chemical_formula_sum              "Au2 Si1 Cl6"
_cell_length_a       7.453114241133327
_cell_length_b       7.453114457401028
_cell_length_c       7.453116526780029
_cell_angle_alpha    59.99999639000248
_cell_angle_beta     59.999999176643264
_cell_angle_gamma    60.00000510104446

_space_group_name_H-M_alt    "P 1"
_space_group_IT_number       1

loop_
  _space_group_symop_operation_xyz
  'x, y, z'

loop_
  _atom_site_type_symbol
  _atom_site_label
  _atom_site_symmetry_multiplicity
  _atom_site_fract_x
  _atom_site_fract_y
  _atom_site_fract_z
  _atom_site_occupancy
  Au  Au1       1.0  0.24999990093395488  0.24999984681638748  0.25000019406549456  1.0000
  Au  Au2       1.0  0.7500000276898461  0.7500000252126181  0.7499998244982901  1.0000
  Si  Si1       1.0  0.9999999220174335  1.0845554244010487e-07  0.99999993780329  1.0000
  Cl  Cl1       1.0  0.20697495892317275  0.2069749938855701  0.7930249654830409  1.0000
  Cl  Cl2       1.0  0.7930251489479003  0.7930249027924372  0.20697494710745862  1.0000
  Cl  Cl3       1.0  0.793025199537081  0.20697479266254334  0.20697512530394158  1.0000
  Cl  Cl4       1.0  0.20697488043075632  0.7930251319509933  0.7930251844197088  1.0000
  Cl  Cl5       1.0  0.2069747901895068  0.7930252979595915  0.2069747749491198  1.0000
  Cl  Cl6       1.0  0.7930249685228481  0.20697495366382707  0.7930252206181421  1.0000
