data_image0
_chemical_formula_structural       Au2SeI6
_chemical_formula_sum              "Au2 Se1 I6"
_cell_length_a       7.705831596441722
_cell_length_b       7.705831614370347
_cell_length_c       7.705831487925419
_cell_angle_alpha    60.00000044315235
_cell_angle_beta     60.00000104539962
_cell_angle_gamma    59.9999998929611

_space_group_name_H-M_alt    "P 1"
_space_group_IT_number       1

loop_
  _space_group_symop_operation_xyz
  'x, y, z'

loop_
  _atom_site_type_symbol
  _atom_site_label
  _atom_site_symmetry_multiplicity
  _atom_site_fract_x
  _atom_site_fract_y
  _atom_site_fract_z
  _atom_site_occupancy
  Au  Au1       1.0  0.24999999974434817  0.25000000242359266  0.2499999889267561  1.0000
  Au  Au2       1.0  0.7500000025026905  0.7499999929664117  0.7500000021451538  1.0000
  Se  Se1       1.0  1.929839497007889e-08  9.536244081797227e-09  0.999999989475836  1.0000
  I   I1        1.0  0.26375375759988057  0.2637537522050681  0.7362462580028202  1.0000
  I   I2        1.0  0.7362462456158432  0.7362462447743101  0.26375375774443  1.0000
  I   I3        1.0  0.7362462536584914  0.2637537421429411  0.2637537556742034  1.0000
  I   I4        1.0  0.2637537346633681  0.7362462500683151  0.7362462595222921  1.0000
  I   I5        1.0  0.2637537248418662  0.7362462802455803  0.2637537148651463  1.0000
  I   I6        1.0  0.7362462557149188  0.2637537262700425  0.7362462762982073  1.0000
