data_image0
_chemical_formula_structural       Au2SnBr6
_chemical_formula_sum              "Au2 Sn1 Br6"
_cell_length_a       7.365094845868371
_cell_length_b       7.365094785584097
_cell_length_c       7.365094764441238
_cell_angle_alpha    60.0000008138385
_cell_angle_beta     60.000001180121544
_cell_angle_gamma    60.00000179803409

_space_group_name_H-M_alt    "P 1"
_space_group_IT_number       1

loop_
  _space_group_symop_operation_xyz
  'x, y, z'

loop_
  _atom_site_type_symbol
  _atom_site_label
  _atom_site_symmetry_multiplicity
  _atom_site_fract_x
  _atom_site_fract_y
  _atom_site_fract_z
  _atom_site_occupancy
  Au  Au1       1.0  0.25000000675393363  0.24999999211828863  0.2500000140213586  1.0000
  Au  Au2       1.0  0.7500000297637114  0.7499999713661527  0.7500000072213385  1.0000
  Sn  Sn1       1.0  0.9999999806647164  0.999999945124154  0.999999989584112  1.0000
  Br  Br1       1.0  0.25048581862034375  0.2504858554193421  0.7495141897193084  1.0000
  Br  Br2       1.0  0.7495142261139219  0.7495142527377826  0.2504857401434238  1.0000
  Br  Br3       1.0  0.7495141599961025  0.25048584504764304  0.2504858311004305  1.0000
  Br  Br4       1.0  0.2504858125106819  0.7495141317400323  0.7495141951297427  1.0000
  Br  Br5       1.0  0.250485789589586  0.7495141741073992  0.250485824258448  1.0000
  Br  Br6       1.0  0.749514168695567  0.25048583593836443  0.7495142087465663  1.0000
