data_image0
_chemical_formula_structural       Au2SF6
_chemical_formula_sum              "Au2 S1 F6"
_cell_length_a       4.991009565805353
_cell_length_b       4.991009569001823
_cell_length_c       4.991009409684523
_cell_angle_alpha    60.0000013041813
_cell_angle_beta     60.00000064071648
_cell_angle_gamma    60.000000979153576

_space_group_name_H-M_alt    "P 1"
_space_group_IT_number       1

loop_
  _space_group_symop_operation_xyz
  'x, y, z'

loop_
  _atom_site_type_symbol
  _atom_site_label
  _atom_site_symmetry_multiplicity
  _atom_site_fract_x
  _atom_site_fract_y
  _atom_site_fract_z
  _atom_site_occupancy
  Au  Au1       1.0  0.2499999338122716  0.25000013347850564  0.24999996310537326  1.0000
  Au  Au2       1.0  0.7500000243649023  0.7499999121090127  0.7500000019792992  1.0000
  S   S1        1.0  2.22013804057566e-08  0.9999999680992738  4.4921727062828364e-08  1.0000
  F   F1        1.0  0.2628215475506131  0.2628215210352019  0.7371784835131606  1.0000
  F   F2        1.0  0.737178458814398  0.7371785049211006  0.2628215274012823  1.0000
  F   F3        1.0  0.7371784857009099  0.26282151623434424  0.2628215265007446  1.0000
  F   F4        1.0  0.26282154833465  0.7371784336509951  0.7371784565202348  1.0000
  F   F5        1.0  0.2628214924740337  0.737178502772928  0.2628215020933897  1.0000
  F   F6        1.0  0.7371784808234967  0.26282151827557015  0.7371784837294363  1.0000
