data_image0
_chemical_formula_structural       Au2SBr6
_chemical_formula_sum              "Au2 S1 Br6"
_cell_length_a       7.211872656411488
_cell_length_b       7.211872965924382
_cell_length_c       7.211872981166297
_cell_angle_alpha    60.00000159392342
_cell_angle_beta     59.9999998266596
_cell_angle_gamma    59.999998512478285

_space_group_name_H-M_alt    "P 1"
_space_group_IT_number       1

loop_
  _space_group_symop_operation_xyz
  'x, y, z'

loop_
  _atom_site_type_symbol
  _atom_site_label
  _atom_site_symmetry_multiplicity
  _atom_site_fract_x
  _atom_site_fract_y
  _atom_site_fract_z
  _atom_site_occupancy
  Au  Au1       1.0  0.25000002886918027  0.2500000184067798  0.25000002212314465  1.0000
  Au  Au2       1.0  0.7499999310946255  0.7499997580293771  0.750000230324262  1.0000
  S   S1        1.0  4.397364791567894e-08  1.698234134234688e-08  1.0402243365472186e-07  1.0000
  Br  Br1       1.0  0.24829106220534292  0.2482909905440317  0.7517089568699822  1.0000
  Br  Br2       1.0  0.7517090423883015  0.7517090100590189  0.2482909489465879  1.0000
  Br  Br3       1.0  0.751708926006976  0.24829108560489724  0.248290970829091  1.0000
  Br  Br4       1.0  0.24829106157514502  0.7517089778328191  0.7517089773285336  1.0000
  Br  Br5       1.0  0.24829095307301371  0.7517091151913333  0.24829082596403937  1.0000
  Br  Br6       1.0  0.7517089528995985  0.2482910297616201  0.7517089586216443  1.0000
