data_image0
_chemical_formula_structural       Au2SF6
_chemical_formula_sum              "Au2 S1 F6"
_cell_length_a       9.003271734481666
_cell_length_b       9.003288101761447
_cell_length_c       9.003274234528584
_cell_angle_alpha    60.000101678404945
_cell_angle_beta     60.00001438169342
_cell_angle_gamma    60.0000266046908

_space_group_name_H-M_alt    "P 1"
_space_group_IT_number       1

loop_
  _space_group_symop_operation_xyz
  'x, y, z'

loop_
  _atom_site_type_symbol
  _atom_site_label
  _atom_site_symmetry_multiplicity
  _atom_site_fract_x
  _atom_site_fract_y
  _atom_site_fract_z
  _atom_site_occupancy
  Au  Au1       1.0  0.24999998053973502  0.25000337336107586  0.24999313122152633  1.0000
  Au  Au2       1.0  0.7499989428139413  0.7499990266058293  0.7499970500220807  1.0000
  S   S1        1.0  1.7149077090364923e-07  0.9999995932620047  1.1694630457407666e-06  1.0000
  F   F1        1.0  0.12649205703344926  0.12649063317799042  0.8735092096824713  1.0000
  F   F2        1.0  0.8735084174635639  0.8735085754613563  0.12649304755735824  1.0000
  F   F3        1.0  0.8735087239952112  0.1264916134160895  0.12649226175998174  1.0000
  F   F4        1.0  0.12649175083968048  0.8735075326481855  0.873510163215385  1.0000
  F   F5        1.0  0.12649170021989245  0.8735088183128724  0.12649271439362006  1.0000
  F   F6        1.0  0.8735087264610443  0.12649036448028703  0.8735096507625727  1.0000
