data_image0
_chemical_formula_structural       Au2SiF6
_chemical_formula_sum              "Au2 Si1 F6"
_cell_length_a       5.618765938935427
_cell_length_b       5.618765721118731
_cell_length_c       5.618765818414728
_cell_angle_alpha    59.99999969898519
_cell_angle_beta     59.999998967374864
_cell_angle_gamma    60.00000025424882

_space_group_name_H-M_alt    "P 1"
_space_group_IT_number       1

loop_
  _space_group_symop_operation_xyz
  'x, y, z'

loop_
  _atom_site_type_symbol
  _atom_site_label
  _atom_site_symmetry_multiplicity
  _atom_site_fract_x
  _atom_site_fract_y
  _atom_site_fract_z
  _atom_site_occupancy
  Au  Au1       1.0  0.2500000162406386  0.25000010258391187  0.24999963895266297  1.0000
  Au  Au2       1.0  0.7499999245305005  0.749999958993334  0.7500002016058092  1.0000
  Si  Si1       1.0  3.2279337590041066e-08  0.9999999956405208  2.875407695923219e-08  1.0000
  F   F1        1.0  0.2169002519546312  0.21690028328988778  0.7830998067788716  1.0000
  F   F2        1.0  0.783099713228124  0.7830997913658007  0.2169002019083494  1.0000
  F   F3        1.0  0.7830998005628812  0.21690019900263954  0.21690021189159753  1.0000
  F   F4        1.0  0.2169002432542812  0.7830997753850074  0.7830998396479445  1.0000
  F   F5        1.0  0.2169002772499733  0.7830997895306521  0.21690017800320407  1.0000
  F   F6        1.0  0.7830997214801229  0.21690017831777383  0.7830998690937274  1.0000
