data_image0
_chemical_formula_structural       Au2TeI6
_chemical_formula_sum              "Au2 Te1 I6"
_cell_length_a       7.942312252663485
_cell_length_b       7.942312392315861
_cell_length_c       7.942312253492269
_cell_angle_alpha    59.999999145029406
_cell_angle_beta     60.00000165188143
_cell_angle_gamma    59.99999932047454

_space_group_name_H-M_alt    "P 1"
_space_group_IT_number       1

loop_
  _space_group_symop_operation_xyz
  'x, y, z'

loop_
  _atom_site_type_symbol
  _atom_site_label
  _atom_site_symmetry_multiplicity
  _atom_site_fract_x
  _atom_site_fract_y
  _atom_site_fract_z
  _atom_site_occupancy
  Au  Au1       1.0  0.2500000217829722  0.24999996365248925  0.25000002825697326  1.0000
  Au  Au2       1.0  0.749999993608321  0.7500000189476835  0.7499999672514855  1.0000
  Te  Te1       1.0  2.743181247467776e-08  3.5467168637915895e-08  0.9999999068556296  1.0000
  I   I1        1.0  0.26342444132102805  0.2634244648495864  0.7365755532126727  1.0000
  I   I2        1.0  0.7365755432746444  0.736575531629043  0.26342447089963456  1.0000
  I   I3        1.0  0.7365755670804065  0.2634244272331913  0.2634244524244784  1.0000
  I   I4        1.0  0.263424404591783  0.7365755862079962  0.7365755872953993  1.0000
  I   I5        1.0  0.26342441786619103  0.7365755968547826  0.26342439718166066  1.0000
  I   I6        1.0  0.7365755841027345  0.2634243780351358  0.7365756378519303  1.0000
