data_image0
_chemical_formula_structural       Au2TiI6
_chemical_formula_sum              "Au2 Ti1 I6"
_cell_length_a       7.997016035598695
_cell_length_b       7.997016056303443
_cell_length_c       7.997015262258956
_cell_angle_alpha    60.00000266879378
_cell_angle_beta     60.00000153567918
_cell_angle_gamma    59.99999974386769

_space_group_name_H-M_alt    "P 1"
_space_group_IT_number       1

loop_
  _space_group_symop_operation_xyz
  'x, y, z'

loop_
  _atom_site_type_symbol
  _atom_site_label
  _atom_site_symmetry_multiplicity
  _atom_site_fract_x
  _atom_site_fract_y
  _atom_site_fract_z
  _atom_site_occupancy
  Au  Au1       1.0  0.25000001201052696  0.24999999552267915  0.25000005931141744  1.0000
  Au  Au2       1.0  0.7500000136446923  0.749999923776444  0.7499998653909967  1.0000
  Ti  Ti1       1.0  7.191792551422682e-08  3.981905842350736e-08  0.9999995552364133  1.0000
  I   I1        1.0  0.23822910002855419  0.2382289989584139  0.7617709711301762  1.0000
  I   I2        1.0  0.7617708309113838  0.7617709402502408  0.23822914853389782  1.0000
  I   I3        1.0  0.7617709146753163  0.2382291089162098  0.23822899627185004  1.0000
  I   I4        1.0  0.23822885010670442  0.7617711641599492  0.7617711795896834  1.0000
  I   I5        1.0  0.23822908585242403  0.7617709164207581  0.23822904983996876  1.0000
  I   I6        1.0  0.76177112162092  0.23822890792521856  0.76177113654379  1.0000
