data_image0
_chemical_formula_structural       Au2TaBr6
_chemical_formula_sum              "Au2 Ta1 Br6"
_cell_length_a       7.9494048731158
_cell_length_b       7.949404824385132
_cell_length_c       7.9494052336212935
_cell_angle_alpha    60.00000016739395
_cell_angle_beta     59.99999878414261
_cell_angle_gamma    59.9999983125885

_space_group_name_H-M_alt    "P 1"
_space_group_IT_number       1

loop_
  _space_group_symop_operation_xyz
  'x, y, z'

loop_
  _atom_site_type_symbol
  _atom_site_label
  _atom_site_symmetry_multiplicity
  _atom_site_fract_x
  _atom_site_fract_y
  _atom_site_fract_z
  _atom_site_occupancy
  Au  Au1       1.0  0.24999997875151583  0.2500000336068684  0.25000000206682355  1.0000
  Au  Au2       1.0  0.7499999957089656  0.749999979107284  0.7500000083969385  1.0000
  Ta  Ta1       1.0  0.9999999613673716  2.0028775487020126e-08  4.452468760569654e-08  1.0000
  Br  Br1       1.0  0.2248482287714574  0.22484814525318295  0.7751517444900342  1.0000
  Br  Br2       1.0  0.7751518345320207  0.7751517534510208  0.22484817792074244  1.0000
  Br  Br3       1.0  0.7751517990580957  0.22484824765396758  0.22484807523314695  1.0000
  Br  Br4       1.0  0.22484820649274595  0.7751517850889598  0.7751519700529236  1.0000
  Br  Br5       1.0  0.22484819544724918  0.7751517786342894  0.22484806908431884  1.0000
  Br  Br6       1.0  0.7751517957390776  0.22484827105606134  0.7751519220761562  1.0000
