data_image0
_chemical_formula_structural       Au2TaF6
_chemical_formula_sum              "Au2 Ta1 F6"
_cell_length_a       11.179021163819478
_cell_length_b       11.179019122939703
_cell_length_c       11.179014715741182
_cell_angle_alpha    60.00000238662332
_cell_angle_beta     59.999992851921434
_cell_angle_gamma    60.00001056212595

_space_group_name_H-M_alt    "P 1"
_space_group_IT_number       1

loop_
  _space_group_symop_operation_xyz
  'x, y, z'

loop_
  _atom_site_type_symbol
  _atom_site_label
  _atom_site_symmetry_multiplicity
  _atom_site_fract_x
  _atom_site_fract_y
  _atom_site_fract_z
  _atom_site_occupancy
  Au  Au1       1.0  0.24999983770883924  0.24999921798626537  0.25000030336365753  1.0000
  Au  Au2       1.0  0.7499997376600273  0.750001715253376  0.7499990489545196  1.0000
  Ta  Ta1       1.0  4.977729822913607e-06  0.9999964547217233  2.3332372635161934e-06  1.0000
  F   F1        1.0  0.12266439507878489  0.12266498125390167  0.8773353880501277  1.0000
  F   F2        1.0  0.8773350621870714  0.8773344532398397  0.12266525305698624  1.0000
  F   F3        1.0  0.8773344024951957  0.12266467285629622  0.12266574835084455  1.0000
  F   F4        1.0  0.12266474298683788  0.8773353313361131  0.8773350804636216  1.0000
  F   F5        1.0  0.1226637032256962  0.8773367807034004  0.1226632194796334  1.0000
  F   F6        1.0  0.8773334727186965  0.12266660662273314  0.877333600814804  1.0000
