data_image0
_chemical_formula_structural       Au2TaI6
_chemical_formula_sum              "Au2 Ta1 I6"
_cell_length_a       8.104322017385853
_cell_length_b       8.104321691722127
_cell_length_c       8.104322050836158
_cell_angle_alpha    59.999999668761
_cell_angle_beta     59.99999935879941
_cell_angle_gamma    60.00000090192775

_space_group_name_H-M_alt    "P 1"
_space_group_IT_number       1

loop_
  _space_group_symop_operation_xyz
  'x, y, z'

loop_
  _atom_site_type_symbol
  _atom_site_label
  _atom_site_symmetry_multiplicity
  _atom_site_fract_x
  _atom_site_fract_y
  _atom_site_fract_z
  _atom_site_occupancy
  Au  Au1       1.0  0.2499999889970783  0.25000001617520917  0.24999999299980702  1.0000
  Au  Au2       1.0  0.7500000147873566  0.75000000772257  0.7500000100523545  1.0000
  Ta  Ta1       1.0  1.4075357047231795e-07  0.999999941062256  2.8977983271556016e-07  1.0000
  I   I1        1.0  0.24008811281152456  0.24008815787755125  0.759911902712518  1.0000
  I   I2        1.0  0.7599117927064741  0.7599117889477809  0.24008817320217074  1.0000
  I   I3        1.0  0.7599119118480303  0.24008813616295627  0.24008816419481083  1.0000
  I   I4        1.0  0.24008826844079395  0.7599117471909542  0.7599116481297581  1.0000
  I   I5        1.0  0.24008814474737927  0.7599118740127668  0.24008822104345362  1.0000
  I   I6        1.0  0.7599116137819221  0.24008833425438142  0.7599116014530676  1.0000
