data_image0
_chemical_formula_structural       Au2TiBr6
_chemical_formula_sum              "Au2 Ti1 Br6"
_cell_length_a       7.514054496241843
_cell_length_b       7.5140544811509224
_cell_length_c       7.514055023752618
_cell_angle_alpha    59.99999868621405
_cell_angle_beta     59.999998344740256
_cell_angle_gamma    60.00000057646505

_space_group_name_H-M_alt    "P 1"
_space_group_IT_number       1

loop_
  _space_group_symop_operation_xyz
  'x, y, z'

loop_
  _atom_site_type_symbol
  _atom_site_label
  _atom_site_symmetry_multiplicity
  _atom_site_fract_x
  _atom_site_fract_y
  _atom_site_fract_z
  _atom_site_occupancy
  Au  Au1       1.0  0.2500000150716621  0.25000001945635547  0.24999995649910572  1.0000
  Au  Au2       1.0  0.7500000162517022  0.7499999654625564  0.7500000528694324  1.0000
  Ti  Ti1       1.0  0.9999998352139727  0.9999999918503022  0.9999999866549114  1.0000
  Br  Br1       1.0  0.23671310580045782  0.23671298478446465  0.7632869094142709  1.0000
  Br  Br2       1.0  0.7632870522317919  0.763287044142796  0.2367129693471136  1.0000
  Br  Br3       1.0  0.7632869364167828  0.23671310391295505  0.23671308958268125  1.0000
  Br  Br4       1.0  0.23671303807714875  0.7632869869519768  0.7632869072051179  1.0000
  Br  Br5       1.0  0.2367130742501586  0.7632868954757044  0.23671313715464315  1.0000
  Br  Br6       1.0  0.7632869190600372  0.23671301446602344  0.7632869832734832  1.0000
