data_image0
_chemical_formula_structural       Au2TiCl6
_chemical_formula_sum              "Au2 Ti1 Cl6"
_cell_length_a       8.137454336754153
_cell_length_b       8.137453988604268
_cell_length_c       8.137453070700275
_cell_angle_alpha    60.00001416246057
_cell_angle_beta     60.000009847133605
_cell_angle_gamma    60.00000571534822

_space_group_name_H-M_alt    "P 1"
_space_group_IT_number       1

loop_
  _space_group_symop_operation_xyz
  'x, y, z'

loop_
  _atom_site_type_symbol
  _atom_site_label
  _atom_site_symmetry_multiplicity
  _atom_site_fract_x
  _atom_site_fract_y
  _atom_site_fract_z
  _atom_site_occupancy
  Au  Au1       1.0  0.2499995948380404  0.25000017127420027  0.25000021492204827  1.0000
  Au  Au2       1.0  0.749999849886731  0.7500000081186575  0.7500002076344354  1.0000
  Ti  Ti1       1.0  0.9999999668492011  0.9999998780892413  9.71929397885334e-08  1.0000
  Cl  Cl1       1.0  0.20452644626563787  0.2045258410282008  0.7954739755090187  1.0000
  Cl  Cl2       1.0  0.7954735407733251  0.7954743248189862  0.20452601922142  1.0000
  Cl  Cl3       1.0  0.7954740566028833  0.20452628959595792  0.20452591280773028  1.0000
  Cl  Cl4       1.0  0.20452612082736138  0.7954737392897329  0.795473872103837  1.0000
  Cl  Cl5       1.0  0.20452606925979228  0.7954736227143246  0.20452624708011566  1.0000
  Cl  Cl6       1.0  0.7954742476230808  0.20452616234983562  0.7954735531493164  1.0000
