data_image0
_chemical_formula_structural       Au2TiF6
_chemical_formula_sum              "Au2 Ti1 F6"
_cell_length_a       5.833164871724574
_cell_length_b       5.8331647741454224
_cell_length_c       5.8331646638222825
_cell_angle_alpha    59.999997666602425
_cell_angle_beta     59.99999763379389
_cell_angle_gamma    59.99999706329404

_space_group_name_H-M_alt    "P 1"
_space_group_IT_number       1

loop_
  _space_group_symop_operation_xyz
  'x, y, z'

loop_
  _atom_site_type_symbol
  _atom_site_label
  _atom_site_symmetry_multiplicity
  _atom_site_fract_x
  _atom_site_fract_y
  _atom_site_fract_z
  _atom_site_occupancy
  Au  Au1       1.0  0.25000007396149926  0.24999998090366304  0.2500000679539391  1.0000
  Au  Au2       1.0  0.7499999576445319  0.7499999931019561  0.7500001650678234  1.0000
  Ti  Ti1       1.0  1.1736576301907675e-08  4.199246430756194e-08  1.1885397757339084e-07  1.0000
  F   F1        1.0  0.2301368065725954  0.23013682012989903  0.7698631523945519  1.0000
  F   F2        1.0  0.7698631559689664  0.7698631769715848  0.23013677274480468  1.0000
  F   F3        1.0  0.7698631826900968  0.2301368146439048  0.2301368250153428  1.0000
  F   F4        1.0  0.23013685977430126  0.7698631089707608  0.7698630506189515  1.0000
  F   F5        1.0  0.23013685967318454  0.7698631849334363  0.23013677976934604  1.0000
  F   F6        1.0  0.7698631037672059  0.2301368688578792  0.7698630771459676  1.0000
