data_image0
_chemical_formula_structural       Au2VBr6
_chemical_formula_sum              "Au2 V1 Br6"
_cell_length_a       7.419154996090694
_cell_length_b       7.41915469884505
_cell_length_c       7.419155110516229
_cell_angle_alpha    59.99999949248882
_cell_angle_beta     59.99999957058438
_cell_angle_gamma    60.00000039169902

_space_group_name_H-M_alt    "P 1"
_space_group_IT_number       1

loop_
  _space_group_symop_operation_xyz
  'x, y, z'

loop_
  _atom_site_type_symbol
  _atom_site_label
  _atom_site_symmetry_multiplicity
  _atom_site_fract_x
  _atom_site_fract_y
  _atom_site_fract_z
  _atom_site_occupancy
  Au  Au1       1.0  0.2500000200629934  0.25000002718807557  0.2499999864146259  1.0000
  Au  Au2       1.0  0.7499999704235365  0.7500000006756311  0.7500000068307501  1.0000
  V   V1        1.0  0.9999999372270367  0.9999999455240076  7.884241282140915e-08  1.0000
  Br  Br1       1.0  0.2320146697450923  0.23201461560003242  0.7679853718588384  1.0000
  Br  Br2       1.0  0.7679853395905886  0.7679854304223386  0.23201461501339124  1.0000
  Br  Br3       1.0  0.7679853549721765  0.2320146315857661  0.2320146431391709  1.0000
  Br  Br4       1.0  0.23201468415589244  0.767985348405099  0.7679852675022509  1.0000
  Br  Br5       1.0  0.23201470256317994  0.767985333896722  0.23201469872051442  1.0000
  Br  Br6       1.0  0.7679853000291249  0.23201465764965767  0.7679853443707835  1.0000
