data_image0
_chemical_formula_structural       Au2VI6
_chemical_formula_sum              "Au2 V1 I6"
_cell_length_a       7.691433292121954
_cell_length_b       7.691433013371131
_cell_length_c       7.691433189348074
_cell_angle_alpha    59.99999991699182
_cell_angle_beta     60.000001146145536
_cell_angle_gamma    60.000003851073785

_space_group_name_H-M_alt    "P 1"
_space_group_IT_number       1

loop_
  _space_group_symop_operation_xyz
  'x, y, z'

loop_
  _atom_site_type_symbol
  _atom_site_label
  _atom_site_symmetry_multiplicity
  _atom_site_fract_x
  _atom_site_fract_y
  _atom_site_fract_z
  _atom_site_occupancy
  Au  Au1       1.0  0.24999995059791585  0.2499999137037957  0.25000006074391773  1.0000
  Au  Au2       1.0  0.7500000083327951  0.7499999560785612  0.7499999912780531  1.0000
  V   V1        1.0  3.255454999793347e-08  2.0859777077335674e-07  0.9999999288294575  1.0000
  I   I1        1.0  0.24282394405787555  0.2428239408089705  0.757176048478778  1.0000
  I   I2        1.0  0.7571759284047465  0.7571759496739243  0.24282407153095875  1.0000
  I   I3        1.0  0.7571760413721568  0.2428239868998928  0.2428240642704039  1.0000
  I   I4        1.0  0.242824171699187  0.757175913137115  0.7571758455539266  1.0000
  I   I5        1.0  0.24282402564401426  0.7571759440159351  0.24282409345872133  1.0000
  I   I6        1.0  0.7571758640715168  0.24282419646581335  0.757175889024692  1.0000
