data_image0
_chemical_formula_structural       Au2VF6
_chemical_formula_sum              "Au2 V1 F6"
_cell_length_a       8.331693005219154
_cell_length_b       8.331694771037691
_cell_length_c       8.331689164723796
_cell_angle_alpha    60.000028977124416
_cell_angle_beta     60.00002470078323
_cell_angle_gamma    59.99999912374658

_space_group_name_H-M_alt    "P 1"
_space_group_IT_number       1

loop_
  _space_group_symop_operation_xyz
  'x, y, z'

loop_
  _atom_site_type_symbol
  _atom_site_label
  _atom_site_symmetry_multiplicity
  _atom_site_fract_x
  _atom_site_fract_y
  _atom_site_fract_z
  _atom_site_occupancy
  Au  Au1       1.0  0.25000357771646825  0.25000038775318045  0.24999564946151906  1.0000
  Au  Au2       1.0  0.7499991585112779  0.749997598554877  0.7499937715076512  1.0000
  V   V1        1.0  0.9999998338561787  1.367084802285952e-07  1.5246155687932907e-06  1.0000
  F   F1        1.0  0.15248612058134906  0.1524861371950749  0.8475150462085522  1.0000
  F   F2        1.0  0.8475132506797873  0.8475141981464649  0.1524875536270321  1.0000
  F   F3        1.0  0.8475138446997253  0.15248674022747863  0.15248779626225054  1.0000
  F   F4        1.0  0.1524854487169755  0.8475141404776295  0.8475152395459279  1.0000
  F   F5        1.0  0.1524857841978109  0.847513937443615  0.15248799509822308  1.0000
  F   F6        1.0  0.8475129997963113  0.15248662133544896  0.8475154191768731  1.0000
