data_image0
_chemical_formula_structural       Au2WI6
_chemical_formula_sum              "Au2 W1 I6"
_cell_length_a       7.86249942302884
_cell_length_b       7.862499622450319
_cell_length_c       7.862499996276845
_cell_angle_alpha    59.99999928261207
_cell_angle_beta     59.99999911722995
_cell_angle_gamma    60.000003591551895

_space_group_name_H-M_alt    "P 1"
_space_group_IT_number       1

loop_
  _space_group_symop_operation_xyz
  'x, y, z'

loop_
  _atom_site_type_symbol
  _atom_site_label
  _atom_site_symmetry_multiplicity
  _atom_site_fract_x
  _atom_site_fract_y
  _atom_site_fract_z
  _atom_site_occupancy
  Au  Au1       1.0  0.2500000082005923  0.250000009120323  0.24999997700352575  1.0000
  Au  Au2       1.0  0.7500000298094069  0.749999985302956  0.7499999405327479  1.0000
  W   W1        1.0  0.9999999422352516  0.9999999485957614  5.646003909939604e-07  1.0000
  I   I1        1.0  0.2442985413902709  0.24429857830041893  0.7557014882738071  1.0000
  I   I2        1.0  0.7557014297022073  0.7557013569300989  0.2442986627468594  1.0000
  I   I3        1.0  0.7557014703636475  0.2442985409852217  0.24429856524440788  1.0000
  I   I4        1.0  0.2442988871128157  0.75570115591657  0.7557011607152456  1.0000
  I   I5        1.0  0.24429852904415317  0.7557015059534108  0.24429853428231108  1.0000
  I   I6        1.0  0.755701153656901  0.24429891995391262  0.7557011187753147  1.0000
