data_image0
_chemical_formula_structural       Au2WCl6
_chemical_formula_sum              "Au2 W1 Cl6"
_cell_length_a       12.55249555831311
_cell_length_b       12.55248089259019
_cell_length_c       12.552494501626967
_cell_angle_alpha    59.9999708104684
_cell_angle_beta     60.0000190187441
_cell_angle_gamma    60.00002106597669

_space_group_name_H-M_alt    "P 1"
_space_group_IT_number       1

loop_
  _space_group_symop_operation_xyz
  'x, y, z'

loop_
  _atom_site_type_symbol
  _atom_site_label
  _atom_site_symmetry_multiplicity
  _atom_site_fract_x
  _atom_site_fract_y
  _atom_site_fract_z
  _atom_site_occupancy
  Au  Au1       1.0  0.24999818744071742  0.2499999373053095  0.2500007960211292  1.0000
  Au  Au2       1.0  0.750000310214008  0.7499995348205803  0.7499999458346451  1.0000
  W   W1        1.0  2.0364793094229108e-07  1.4245228888807688e-07  2.4439682887041405e-07  1.0000
  Cl  Cl1       1.0  0.13008510716633476  0.13008488113555886  0.8699144865163356  1.0000
  Cl  Cl2       1.0  0.8699154015658301  0.8699153052037284  0.130084904644119  1.0000
  Cl  Cl3       1.0  0.8699150678832971  0.1300861768300724  0.13008404257249134  1.0000
  Cl  Cl4       1.0  0.13008464627140212  0.869914577366008  0.869915890548299  1.0000
  Cl  Cl5       1.0  0.13008518380667097  0.8699141774677532  0.1300848639232908  1.0000
  Cl  Cl6       1.0  0.8699156512802473  0.13008571421040807  0.8699149559235317  1.0000
