data_image0
_chemical_formula_structural       Au2WF6
_chemical_formula_sum              "Au2 W1 F6"
_cell_length_a       8.206395328174782
_cell_length_b       8.206395461730216
_cell_length_c       8.206393231915913
_cell_angle_alpha    60.00001431698781
_cell_angle_beta     59.99999836368256
_cell_angle_gamma    59.999999482568086

_space_group_name_H-M_alt    "P 1"
_space_group_IT_number       1

loop_
  _space_group_symop_operation_xyz
  'x, y, z'

loop_
  _atom_site_type_symbol
  _atom_site_label
  _atom_site_symmetry_multiplicity
  _atom_site_fract_x
  _atom_site_fract_y
  _atom_site_fract_z
  _atom_site_occupancy
  Au  Au1       1.0  0.2500000861621812  0.25000054550341094  0.24999980849415931  1.0000
  Au  Au2       1.0  0.7500001043143772  0.7499994396575017  0.7500001513454249  1.0000
  W   W1        1.0  1.074886254865422e-06  2.786361177475725e-06  0.9999966863082989  1.0000
  F   F1        1.0  0.16153111138088452  0.1615315861386626  0.8384685501510032  1.0000
  F   F2        1.0  0.8384668125563449  0.8384666633297173  0.16153335596931892  1.0000
  F   F3        1.0  0.8384675385440024  0.1615324684703066  0.16153252795478798  1.0000
  F   F4        1.0  0.16153228587609778  0.8384677495093018  0.8384678567609802  1.0000
  F   F5        1.0  0.1615327222312337  0.8384672335966845  0.1615329906671281  1.0000
  F   F6        1.0  0.8384682588969968  0.16153167552431563  0.8384681220544767  1.0000
