data_image0
_chemical_formula_structural       Au2WBr6
_chemical_formula_sum              "Au2 W1 Br6"
_cell_length_a       7.983698834515475
_cell_length_b       7.983699945084885
_cell_length_c       7.983699235439226
_cell_angle_alpha    59.99999806427119
_cell_angle_beta     59.999999394293305
_cell_angle_gamma    59.9999995029669

_space_group_name_H-M_alt    "P 1"
_space_group_IT_number       1

loop_
  _space_group_symop_operation_xyz
  'x, y, z'

loop_
  _atom_site_type_symbol
  _atom_site_label
  _atom_site_symmetry_multiplicity
  _atom_site_fract_x
  _atom_site_fract_y
  _atom_site_fract_z
  _atom_site_occupancy
  Au  Au1       1.0  0.2500000217866702  0.24999997156534637  0.2500000026538498  1.0000
  Au  Au2       1.0  0.7500000215591796  0.7500000374205864  0.7499998695480631  1.0000
  W   W1        1.0  0.9999999701235215  2.4544909056259994e-08  0.9999999964030226  1.0000
  Br  Br1       1.0  0.2187950853265062  0.21879515868047342  0.7812048947961888  1.0000
  Br  Br2       1.0  0.7812048567767528  0.7812048503054533  0.21879516580776293  1.0000
  Br  Br3       1.0  0.7812048778973623  0.2187950615408653  0.21879518352340147  1.0000
  Br  Br4       1.0  0.2187951304309632  0.7812048876168496  0.7812048225274856  1.0000
  Br  Br5       1.0  0.2187950842520664  0.7812049040733524  0.21879519273816136  1.0000
  Br  Br6       1.0  0.7812049462523517  0.21879509570822944  0.7812048696016068  1.0000
