data_image0
_chemical_formula_structural       Au2ZrBr6
_chemical_formula_sum              "Au2 Zr1 Br6"
_cell_length_a       7.6617636712404735
_cell_length_b       7.661763952564689
_cell_length_c       7.6617639948908955
_cell_angle_alpha    59.99999890620402
_cell_angle_beta     59.99999769879537
_cell_angle_gamma    59.99999892068317

_space_group_name_H-M_alt    "P 1"
_space_group_IT_number       1

loop_
  _space_group_symop_operation_xyz
  'x, y, z'

loop_
  _atom_site_type_symbol
  _atom_site_label
  _atom_site_symmetry_multiplicity
  _atom_site_fract_x
  _atom_site_fract_y
  _atom_site_fract_z
  _atom_site_occupancy
  Au  Au1       1.0  0.250000059087712  0.24999998071155613  0.2499999965825034  1.0000
  Au  Au2       1.0  0.7499999506947288  0.7500000476366968  0.7500000137355916  1.0000
  Zr  Zr1       1.0  0.9999999855219386  4.795546600933791e-08  6.679297511699797e-08  1.0000
  Br  Br1       1.0  0.2451798161715245  0.2451798886411343  0.7548200822488423  1.0000
  Br  Br2       1.0  0.7548201906881478  0.7548201349115727  0.24517981185162321  1.0000
  Br  Br3       1.0  0.7548200941699177  0.24517987164709826  0.24517986619269133  1.0000
  Br  Br4       1.0  0.24517987577511388  0.754820059191707  0.7548201579811695  1.0000
  Br  Br5       1.0  0.24517991081572243  0.754820040335387  0.24517990351706628  1.0000
  Br  Br6       1.0  0.7548201187731646  0.24517992407224423  0.7548201092903799  1.0000
