data_image0
_chemical_formula_structural       Au2ZrF6
_chemical_formula_sum              "Au2 Zr1 F6"
_cell_length_a       5.927540906489563
_cell_length_b       5.927540667195444
_cell_length_c       5.927540815074292
_cell_angle_alpha    59.9999981723761
_cell_angle_beta     59.99999891068437
_cell_angle_gamma    59.99999603668616

_space_group_name_H-M_alt    "P 1"
_space_group_IT_number       1

loop_
  _space_group_symop_operation_xyz
  'x, y, z'

loop_
  _atom_site_type_symbol
  _atom_site_label
  _atom_site_symmetry_multiplicity
  _atom_site_fract_x
  _atom_site_fract_y
  _atom_site_fract_z
  _atom_site_occupancy
  Au  Au1       1.0  0.24999992738967955  0.24999997820252293  0.2500000882536422  1.0000
  Au  Au2       1.0  0.7500000123906483  0.7499999160118175  0.7500000256718141  1.0000
  Zr  Zr1       1.0  0.9999999914988875  3.719149265923158e-08  0.9999999890288903  1.0000
  F   F1        1.0  0.24304590095830508  0.24304588979341665  0.7569540922408277  1.0000
  F   F2        1.0  0.7569540930898724  0.7569540870686837  0.24304591611193718  1.0000
  F   F3        1.0  0.7569540863850504  0.24304597958553778  0.24304588306274288  1.0000
  F   F4        1.0  0.24304593865255308  0.7569541088510394  0.7569540152061432  1.0000
  F   F5        1.0  0.243045980676879  0.7569540310029329  0.24304593277173145  1.0000
  F   F6        1.0  0.7569540805089837  0.24304596652110597  0.7569540418034618  1.0000
