data_image0
_chemical_formula_structural       Au2ZnI6
_chemical_formula_sum              "Au2 Zn1 I6"
_cell_length_a       7.595534076501101
_cell_length_b       7.595534182669653
_cell_length_c       7.595534132851079
_cell_angle_alpha    60.000000056923504
_cell_angle_beta     60.0000003637097
_cell_angle_gamma    59.99999997410359

_space_group_name_H-M_alt    "P 1"
_space_group_IT_number       1

loop_
  _space_group_symop_operation_xyz
  'x, y, z'

loop_
  _atom_site_type_symbol
  _atom_site_label
  _atom_site_symmetry_multiplicity
  _atom_site_fract_x
  _atom_site_fract_y
  _atom_site_fract_z
  _atom_site_occupancy
  Au  Au1       1.0  0.24999999984165708  0.24999999799477082  0.24999999450148408  1.0000
  Au  Au2       1.0  0.7499999963922813  0.7499999988216741  0.7500000063502524  1.0000
  Zn  Zn1       1.0  0.9999999904174945  2.4186808373154262e-08  2.8245052295384538e-08  1.0000
  I   I1        1.0  0.2575256066933308  0.25752558592023445  0.7424743949759308  1.0000
  I   I2        1.0  0.7424743980323221  0.742474417346026  0.25752559313878826  1.0000
  I   I3        1.0  0.7424743976630681  0.2575256027522053  0.2575255777118441  1.0000
  I   I4        1.0  0.25752561011887876  0.742474373102339  0.7424743896665085  1.0000
  I   I5        1.0  0.2575255883105094  0.7424743976727509  0.25752560844011585  1.0000
  I   I6        1.0  0.7424744140965915  0.2575255943063321  0.7424744075424775  1.0000
