data_image0
_chemical_formula_structural       Au2ZnCl6
_chemical_formula_sum              "Au2 Zn1 Cl6"
_cell_length_a       6.786144622886713
_cell_length_b       6.786144922900008
_cell_length_c       6.786145062062444
_cell_angle_alpha    59.9999993274248
_cell_angle_beta     59.99999855606149
_cell_angle_gamma    59.99999811983552

_space_group_name_H-M_alt    "P 1"
_space_group_IT_number       1

loop_
  _space_group_symop_operation_xyz
  'x, y, z'

loop_
  _atom_site_type_symbol
  _atom_site_label
  _atom_site_symmetry_multiplicity
  _atom_site_fract_x
  _atom_site_fract_y
  _atom_site_fract_z
  _atom_site_occupancy
  Au  Au1       1.0  0.24999977745554147  0.2500000992929059  0.2500001453224688  1.0000
  Au  Au2       1.0  0.749999761492192  0.749999893609633  0.7500001848174797  1.0000
  Zn  Zn1       1.0  3.3034372564329636e-08  0.9999999927809088  0.9999999134128263  1.0000
  Cl  Cl1       1.0  0.25229458516277325  0.25229451806992126  0.7477053831079143  1.0000
  Cl  Cl2       1.0  0.7477055518745866  0.747705400836925  0.25229459214885863  1.0000
  Cl  Cl3       1.0  0.7477055463430884  0.2522945505948654  0.2522944957985621  1.0000
  Cl  Cl4       1.0  0.25229457649490206  0.7477055181081118  0.74770538955597  1.0000
  Cl  Cl5       1.0  0.25229466691787084  0.7477054507988152  0.25229447103301633  1.0000
  Cl  Cl6       1.0  0.7477055352415753  0.25229453307984545  0.7477054332824439  1.0000
