data_image0
_chemical_formula_structural       Au2ZrI6
_chemical_formula_sum              "Au2 Zr1 I6"
_cell_length_a       8.185084994066717
_cell_length_b       8.185085204819314
_cell_length_c       8.185084760931408
_cell_angle_alpha    60.00000065531923
_cell_angle_beta     60.000001190502616
_cell_angle_gamma    60.0000000843973

_space_group_name_H-M_alt    "P 1"
_space_group_IT_number       1

loop_
  _space_group_symop_operation_xyz
  'x, y, z'

loop_
  _atom_site_type_symbol
  _atom_site_label
  _atom_site_symmetry_multiplicity
  _atom_site_fract_x
  _atom_site_fract_y
  _atom_site_fract_z
  _atom_site_occupancy
  Au  Au1       1.0  0.2500000398892228  0.25000000844065595  0.2499999655438314  1.0000
  Au  Au2       1.0  0.7499999652420556  0.7500000103588401  0.7499999996518809  1.0000
  Zr  Zr1       1.0  3.868893997119437e-08  0.9999999685774249  2.627049272599246e-07  1.0000
  I   I1        1.0  0.24619759937091326  0.2461975592236098  0.7538024079367296  1.0000
  I   I2        1.0  0.7538024510604296  0.7538024760353276  0.24619753981830864  1.0000
  I   I3        1.0  0.7538025426584287  0.24619741858849747  0.24619740677438268  1.0000
  I   I4        1.0  0.24619752595855035  0.7538024520760211  0.7538025249984338  1.0000
  I   I5        1.0  0.24619736087860367  0.7538025668389218  0.24619742554891014  1.0000
  I   I6        1.0  0.7538024755753814  0.24619754323566487  0.7538024635048644  1.0000
