data_image0
_chemical_formula_structural       Au2ZrCl6
_chemical_formula_sum              "Au2 Zr1 Cl6"
_cell_length_a       11.315822275707959
_cell_length_b       11.315816158453954
_cell_length_c       11.31582107207965
_cell_angle_alpha    59.99998438595158
_cell_angle_beta     59.99999203456688
_cell_angle_gamma    59.99996774875367

_space_group_name_H-M_alt    "P 1"
_space_group_IT_number       1

loop_
  _space_group_symop_operation_xyz
  'x, y, z'

loop_
  _atom_site_type_symbol
  _atom_site_label
  _atom_site_symmetry_multiplicity
  _atom_site_fract_x
  _atom_site_fract_y
  _atom_site_fract_z
  _atom_site_occupancy
  Au  Au1       1.0  0.2499992879283628  0.2500000290471407  0.25000030454727445  1.0000
  Au  Au2       1.0  0.7500012182848285  0.7499991769009953  0.750000014069123  1.0000
  Zr  Zr1       1.0  0.9999998859663173  1.8291386233162756e-07  0.9999999735133845  1.0000
  Cl  Cl1       1.0  0.15695722198596704  0.156957589738904  0.8430425470348403  1.0000
  Cl  Cl2       1.0  0.8430435806559844  0.8430416789843428  0.1569573595616398  1.0000
  Cl  Cl3       1.0  0.8430422116570605  0.15695732118376293  0.15695758629069217  1.0000
  Cl  Cl4       1.0  0.1569573021892319  0.8430432853000986  0.843041886661761  1.0000
  Cl  Cl5       1.0  0.15695747163471546  0.843043174333212  0.15695718353556998  1.0000
  Cl  Cl6       1.0  0.8430418692491936  0.1569576908276787  0.8430431691616479  1.0000
