data_image0
_chemical_formula_structural       Au2ZnF6
_chemical_formula_sum              "Au2 Zn1 F6"
_cell_length_a       5.381297075656185
_cell_length_b       5.381297060696689
_cell_length_c       5.381297710493607
_cell_angle_alpha    59.99999664687512
_cell_angle_beta     59.99999799602001
_cell_angle_gamma    59.99999807066578

_space_group_name_H-M_alt    "P 1"
_space_group_IT_number       1

loop_
  _space_group_symop_operation_xyz
  'x, y, z'

loop_
  _atom_site_type_symbol
  _atom_site_label
  _atom_site_symmetry_multiplicity
  _atom_site_fract_x
  _atom_site_fract_y
  _atom_site_fract_z
  _atom_site_occupancy
  Au  Au1       1.0  0.24999990397795782  0.24999994034247344  0.2500000723718886  1.0000
  Au  Au2       1.0  0.7499999962533171  0.7500001396574575  0.7499998766168868  1.0000
  Zn  Zn1       1.0  0.9999999938230263  0.999999986344427  6.248341181486877e-10  1.0000
  F   F1        1.0  0.2546985997092294  0.2546984702997457  0.7453014363433427  1.0000
  F   F2        1.0  0.7453014300936627  0.7453014913518863  0.254698611097893  1.0000
  F   F3        1.0  0.7453015190005838  0.2546984823633183  0.25469855767272  1.0000
  F   F4        1.0  0.2546985100436655  0.7453014815642423  0.7453014834350092  1.0000
  F   F5        1.0  0.2546984895546686  0.745301502000542  0.25469854304945544  1.0000
  F   F6        1.0  0.7453015307540194  0.2546985074455953  0.745301420201556  1.0000
