data_image0
_chemical_formula_structural       Au2ZnBr6
_chemical_formula_sum              "Au2 Zn1 Br6"
_cell_length_a       7.186578861514131
_cell_length_b       7.186578917160599
_cell_length_c       7.186578594557873
_cell_angle_alpha    60.00000069449
_cell_angle_beta     60.000000816536875
_cell_angle_gamma    59.99999873162106

_space_group_name_H-M_alt    "P 1"
_space_group_IT_number       1

loop_
  _space_group_symop_operation_xyz
  'x, y, z'

loop_
  _atom_site_type_symbol
  _atom_site_label
  _atom_site_symmetry_multiplicity
  _atom_site_fract_x
  _atom_site_fract_y
  _atom_site_fract_z
  _atom_site_occupancy
  Au  Au1       1.0  0.24999999054065264  0.25000005749547227  0.2500000074837927  1.0000
  Au  Au2       1.0  0.7499998766959172  0.7500000668253212  0.7500000462133972  1.0000
  Zn  Zn1       1.0  0.9999999965108347  0.99999998636631  0.9999999974295659  1.0000
  Br  Br1       1.0  0.2510672970878699  0.25106726153756176  0.7489327080306227  1.0000
  Br  Br2       1.0  0.7489327622788086  0.7489327298547498  0.251067264580893  1.0000
  Br  Br3       1.0  0.7489327833618072  0.2510671948278388  0.25106721366833196  1.0000
  Br  Br4       1.0  0.2510672760550402  0.748932709649699  0.7489327689799011  1.0000
  Br  Br5       1.0  0.2510672673182735  0.748932766165882  0.25106719294700086  1.0000
  Br  Br6       1.0  0.7489327549957863  0.2510672303390643  0.7489327691963352  1.0000
