data_image0
_chemical_formula_structural       Ba2AuF6
_chemical_formula_sum              "Ba2 Au1 F6"
_cell_length_a       6.025725370318942
_cell_length_b       6.025725282380123
_cell_length_c       6.025725481932562
_cell_angle_alpha    60.00000039198158
_cell_angle_beta     59.99999903140684
_cell_angle_gamma    59.999999973719135

_space_group_name_H-M_alt    "P 1"
_space_group_IT_number       1

loop_
  _space_group_symop_operation_xyz
  'x, y, z'

loop_
  _atom_site_type_symbol
  _atom_site_label
  _atom_site_symmetry_multiplicity
  _atom_site_fract_x
  _atom_site_fract_y
  _atom_site_fract_z
  _atom_site_occupancy
  Ba  Ba1       1.0  0.25000002712469777  0.24999999777984125  0.24999997458944961  1.0000
  Ba  Ba2       1.0  0.7499999654870158  0.7500000075672134  0.7500000608947059  1.0000
  Au  Au1       1.0  0.999999976307131  3.6585482885128e-08  0.9999999354694012  1.0000
  F   F1        1.0  0.2595970754807132  0.25959706838052826  0.7404029366069804  1.0000
  F   F2        1.0  0.7404029334875136  0.7404029166412573  0.2595970892446941  1.0000
  F   F3        1.0  0.7404029516530084  0.2595970344996346  0.2595970594794159  1.0000
  F   F4        1.0  0.25959706285153245  0.7404029281643547  0.740402944911078  1.0000
  F   F5        1.0  0.25959709252162344  0.7404029133126967  0.2595970745917552  1.0000
  F   F6        1.0  0.7404029211692221  0.2595970920343575  0.7404029254595664  1.0000
