data_image0
_chemical_formula_structural       Ba2AgF6
_chemical_formula_sum              "Ba2 Ag1 F6"
_cell_length_a       5.954605334213954
_cell_length_b       5.9546053721474825
_cell_length_c       5.954605360961656
_cell_angle_alpha    60.000000426634195
_cell_angle_beta     60.00000004139826
_cell_angle_gamma    59.99999924756847

_space_group_name_H-M_alt    "P 1"
_space_group_IT_number       1

loop_
  _space_group_symop_operation_xyz
  'x, y, z'

loop_
  _atom_site_type_symbol
  _atom_site_label
  _atom_site_symmetry_multiplicity
  _atom_site_fract_x
  _atom_site_fract_y
  _atom_site_fract_z
  _atom_site_occupancy
  Ba  Ba1       1.0  0.24999999589172764  0.2499999506019021  0.25000002436131874  1.0000
  Ba  Ba2       1.0  0.749999931103014  0.7500000389747572  0.7499999691599504  1.0000
  Ag  Ag1       1.0  0.9999999660157616  0.999999985602381  0.9999999637335216  1.0000
  F   F1        1.0  0.25782611133392463  0.2578260948984128  0.7421738994821289  1.0000
  F   F2        1.0  0.7421739193376258  0.742173915246273  0.2578261058091091  1.0000
  F   F3        1.0  0.7421739451568815  0.25782607786856176  0.25782606041454775  1.0000
  F   F4        1.0  0.2578260704516309  0.7421739425601379  0.7421739455868297  1.0000
  F   F5        1.0  0.2578260813778846  0.7421739244521234  0.2578260965209853  1.0000
  F   F6        1.0  0.7421739727989941  0.25782607335174573  0.742173928378583  1.0000
