data_image0
_chemical_formula_structural       Ba2AuCl6
_chemical_formula_sum              "Ba2 Au1 Cl6"
_cell_length_a       7.012827184688574
_cell_length_b       7.012827222650866
_cell_length_c       7.012827201714018
_cell_angle_alpha    59.99999999981555
_cell_angle_beta     60.00000093066948
_cell_angle_gamma    59.99999903336242

_space_group_name_H-M_alt    "P 1"
_space_group_IT_number       1

loop_
  _space_group_symop_operation_xyz
  'x, y, z'

loop_
  _atom_site_type_symbol
  _atom_site_label
  _atom_site_symmetry_multiplicity
  _atom_site_fract_x
  _atom_site_fract_y
  _atom_site_fract_z
  _atom_site_occupancy
  Ba  Ba1       1.0  0.2500000131605249  0.24999998619929412  0.2500000004951025  1.0000
  Ba  Ba2       1.0  0.7499999782422632  0.7500000040052  0.7500000108272624  1.0000
  Au  Au1       1.0  2.5163452393952595e-08  3.3182269462024466e-08  2.073568395797985e-08  1.0000
  Cl  Cl1       1.0  0.2548330089102052  0.25483301971695344  0.7451669814946639  1.0000
  Cl  Cl2       1.0  0.7451669984587301  0.7451669966840696  0.2548329930608202  1.0000
  Cl  Cl3       1.0  0.7451669906997392  0.2548330037174671  0.25483298189244974  1.0000
  Cl  Cl4       1.0  0.2548329642790789  0.7451669969656394  0.745167023865134  1.0000
  Cl  Cl5       1.0  0.25483299732860637  0.7451669766851597  0.25483297799942095  1.0000
  Cl  Cl6       1.0  0.745167023247043  0.254832980337064  0.745167009660397  1.0000
