data_image0
_chemical_formula_structural       Ba2AuBr6
_chemical_formula_sum              "Ba2 Au1 Br6"
_cell_length_a       7.3269711476143575
_cell_length_b       7.326971245061432
_cell_length_c       7.326971124857822
_cell_angle_alpha    59.99999970517774
_cell_angle_beta     60.00000044430023
_cell_angle_gamma    60.00000119289834

_space_group_name_H-M_alt    "P 1"
_space_group_IT_number       1

loop_
  _space_group_symop_operation_xyz
  'x, y, z'

loop_
  _atom_site_type_symbol
  _atom_site_label
  _atom_site_symmetry_multiplicity
  _atom_site_fract_x
  _atom_site_fract_y
  _atom_site_fract_z
  _atom_site_occupancy
  Ba  Ba1       1.0  0.25000000935597894  0.24999999839163986  0.24999999076317972  1.0000
  Ba  Ba2       1.0  0.7500000164790392  0.7499999968464761  0.7500000031797982  1.0000
  Au  Au1       1.0  0.9999999715999367  5.6832931433442473e-08  0.9999999694057201  1.0000
  Br  Br1       1.0  0.25702989097950213  0.2570298924093137  0.742970108044011  1.0000
  Br  Br2       1.0  0.7429701139064628  0.7429700994856884  0.25702989668022996  1.0000
  Br  Br3       1.0  0.7429700851464465  0.2570299208521165  0.257029892111657  1.0000
  Br  Br4       1.0  0.25702990936058956  0.7429700643566584  0.7429700993080348  1.0000
  Br  Br5       1.0  0.2570299126109704  0.7429700779552882  0.25702990232176676  1.0000
  Br  Br6       1.0  0.7429700979424485  0.257029892209475  0.7429701363654552  1.0000
