data_image0
_chemical_formula_structural       Ba2AuI6
_chemical_formula_sum              "Ba2 Au1 I6"
_cell_length_a       7.951389869976592
_cell_length_b       7.951389898274755
_cell_length_c       7.951389943278417
_cell_angle_alpha    60.00000010526208
_cell_angle_beta     59.999998833496186
_cell_angle_gamma    60.00000133587049

_space_group_name_H-M_alt    "P 1"
_space_group_IT_number       1

loop_
  _space_group_symop_operation_xyz
  'x, y, z'

loop_
  _atom_site_type_symbol
  _atom_site_label
  _atom_site_symmetry_multiplicity
  _atom_site_fract_x
  _atom_site_fract_y
  _atom_site_fract_z
  _atom_site_occupancy
  Ba  Ba1       1.0  0.25000005192819985  0.2500000057452877  0.2500000151570347  1.0000
  Ba  Ba2       1.0  0.7499999324982201  0.749999998752375  0.750000002862611  1.0000
  Au  Au1       1.0  0.9999999817380388  0.9999999676539036  2.0273461756272388e-08  1.0000
  I   I1        1.0  0.25645891158862133  0.25645882983085816  0.7435411202291538  1.0000
  I   I2        1.0  0.7435411311749425  0.7435411869891276  0.25645884233849014  1.0000
  I   I3        1.0  0.7435411418874055  0.2564588730315722  0.2564588769519101  1.0000
  I   I4        1.0  0.25645882270653614  0.7435411561107347  0.7435411361463693  1.0000
  I   I5        1.0  0.2564588457808432  0.7435411344264896  0.25645888346419166  1.0000
  I   I6        1.0  0.7435411835907884  0.25645884850710976  0.7435411014849699  1.0000
