data_image0
_chemical_formula_structural       Ba2AgI6
_chemical_formula_sum              "Ba2 Ag1 I6"
_cell_length_a       7.9337068884826545
_cell_length_b       7.933706802877475
_cell_length_c       7.9337069174963855
_cell_angle_alpha    59.99999868705603
_cell_angle_beta     59.9999984196491
_cell_angle_gamma    59.99999829549341

_space_group_name_H-M_alt    "P 1"
_space_group_IT_number       1

loop_
  _space_group_symop_operation_xyz
  'x, y, z'

loop_
  _atom_site_type_symbol
  _atom_site_label
  _atom_site_symmetry_multiplicity
  _atom_site_fract_x
  _atom_site_fract_y
  _atom_site_fract_z
  _atom_site_occupancy
  Ba  Ba1       1.0  0.2500000428049148  0.2499999727051774  0.2499999439521573  1.0000
  Ba  Ba2       1.0  0.7499999376036981  0.7500000277198949  0.7500000438803143  1.0000
  Ag  Ag1       1.0  9.305183387208949e-09  4.6311702054309035e-08  1.5046681674777386e-08  1.0000
  I   I1        1.0  0.25665632059448834  0.2566563068854641  0.7433437262407293  1.0000
  I   I2        1.0  0.7433436196799142  0.7433436611214167  0.2566563785364138  1.0000
  I   I3        1.0  0.7433437067961656  0.25665628443424904  0.25665631202660155  1.0000
  I   I4        1.0  0.25665639676712226  0.7433436434358223  0.7433435988277932  1.0000
  I   I5        1.0  0.256656272836114  0.7433437441573054  0.25665631530639915  1.0000
  I   I6        1.0  0.7433436895623919  0.2566563102980864  0.7433436709017489  1.0000
