data_image0
_chemical_formula_structural       Ba2AgBr6
_chemical_formula_sum              "Ba2 Ag1 Br6"
_cell_length_a       7.346846137415816
_cell_length_b       7.346846064148391
_cell_length_c       7.346846272358174
_cell_angle_alpha    60.00000038710287
_cell_angle_beta     60.00000056564662
_cell_angle_gamma    60.000000585261496

_space_group_name_H-M_alt    "P 1"
_space_group_IT_number       1

loop_
  _space_group_symop_operation_xyz
  'x, y, z'

loop_
  _atom_site_type_symbol
  _atom_site_label
  _atom_site_symmetry_multiplicity
  _atom_site_fract_x
  _atom_site_fract_y
  _atom_site_fract_z
  _atom_site_occupancy
  Ba  Ba1       1.0  0.25000001193801036  0.24999996671646899  0.25000002680117417  1.0000
  Ba  Ba2       1.0  0.7500000184272337  0.750000070186964  0.7499999183270645  1.0000
  Ag  Ag1       1.0  0.9999999676126954  5.001104537305221e-08  0.999999904075922  1.0000
  Br  Br1       1.0  0.25789154285632226  0.2578915718161824  0.7421084404054125  1.0000
  Br  Br2       1.0  0.7421084465822139  0.7421084134091693  0.25789157416439995  1.0000
  Br  Br3       1.0  0.7421084145800911  0.2578915651240501  0.2578915503941296  1.0000
  Br  Br4       1.0  0.2578915668256465  0.7421084017639178  0.7421084828052867  1.0000
  Br  Br5       1.0  0.2578915532672887  0.7421084299804168  0.2578915954545616  1.0000
  Br  Br6       1.0  0.7421084727016029  0.25789153524051767  0.7421085170202854  1.0000
