data_image0
_chemical_formula_structural       Ba2AgCl6
_chemical_formula_sum              "Ba2 Ag1 Cl6"
_cell_length_a       6.993536009448667
_cell_length_b       6.993535928590892
_cell_length_c       6.993536007682012
_cell_angle_alpha    60.000000205701774
_cell_angle_beta     59.99999994989528
_cell_angle_gamma    60.0000001580518

_space_group_name_H-M_alt    "P 1"
_space_group_IT_number       1

loop_
  _space_group_symop_operation_xyz
  'x, y, z'

loop_
  _atom_site_type_symbol
  _atom_site_label
  _atom_site_symmetry_multiplicity
  _atom_site_fract_x
  _atom_site_fract_y
  _atom_site_fract_z
  _atom_site_occupancy
  Ba  Ba1       1.0  0.25000000302452646  0.24999997324388787  0.2500000080119102  1.0000
  Ba  Ba2       1.0  0.7499999947115384  0.7500000668368904  0.749999960523922  1.0000
  Ag  Ag1       1.0  9.44301728441948e-08  0.99999995446743  0.9999999569626046  1.0000
  Cl  Cl1       1.0  0.25608273805307635  0.2560827270066344  0.7439172645208978  1.0000
  Cl  Cl2       1.0  0.7439172220425959  0.7439172377702777  0.2560827676365225  1.0000
  Cl  Cl3       1.0  0.7439172352234762  0.2560827460223027  0.2560827977892613  1.0000
  Cl  Cl4       1.0  0.25608273154237104  0.7439172730434438  0.7439172839625973  1.0000
  Cl  Cl5       1.0  0.2560827480948295  0.7439172539679488  0.25608272967847323  1.0000
  Cl  Cl6       1.0  0.7439172336310457  0.25608275984403883  0.7439172385484717  1.0000
