data_image0
_chemical_formula_structural       Ba2BeI6
_chemical_formula_sum              "Ba2 Be1 I6"
_cell_length_a       7.812266016245791
_cell_length_b       7.812266187756456
_cell_length_c       7.812266151815408
_cell_angle_alpha    59.99999786997381
_cell_angle_beta     60.00000024693873
_cell_angle_gamma    59.99999925861113

_space_group_name_H-M_alt    "P 1"
_space_group_IT_number       1

loop_
  _space_group_symop_operation_xyz
  'x, y, z'

loop_
  _atom_site_type_symbol
  _atom_site_label
  _atom_site_symmetry_multiplicity
  _atom_site_fract_x
  _atom_site_fract_y
  _atom_site_fract_z
  _atom_site_occupancy
  Ba  Ba1       1.0  0.24999993068529222  0.24999993624792158  0.25000012701829716  1.0000
  Ba  Ba2       1.0  0.7500000790198866  0.7500000297923461  0.7499998902415057  1.0000
  Be  Be1       1.0  0.9999999872200248  0.9999999984322797  4.613771051922653e-09  1.0000
  I   I1        1.0  0.24159492935096832  0.24159498710618635  0.7584050529514796  1.0000
  I   I2        1.0  0.758405090236957  0.7584050291011335  0.24159495092392125  1.0000
  I   I3        1.0  0.7584050535918624  0.24159495806315584  0.2415949567124566  1.0000
  I   I4        1.0  0.24159493670382143  0.7584050440346817  0.7584050227824267  1.0000
  I   I5        1.0  0.24159494021697642  0.758405060576471  0.24159496154314553  1.0000
  I   I6        1.0  0.7584050596335827  0.24159495719857005  0.7584050283763879  1.0000
