data_image0
_chemical_formula_structural       Ba2BeF6
_chemical_formula_sum              "Ba2 Be1 F6"
_cell_length_a       5.667417832861481
_cell_length_b       5.667417774407298
_cell_length_c       5.667417837299954
_cell_angle_alpha    59.9999991507326
_cell_angle_beta     59.999999833938425
_cell_angle_gamma    59.999999444380066

_space_group_name_H-M_alt    "P 1"
_space_group_IT_number       1

loop_
  _space_group_symop_operation_xyz
  'x, y, z'

loop_
  _atom_site_type_symbol
  _atom_site_label
  _atom_site_symmetry_multiplicity
  _atom_site_fract_x
  _atom_site_fract_y
  _atom_site_fract_z
  _atom_site_occupancy
  Ba  Ba1       1.0  0.24999992675836177  0.24999999625726935  0.25000006402165853  1.0000
  Ba  Ba2       1.0  0.750000025692611  0.750000047119567  0.7499998213878066  1.0000
  Be  Be1       1.0  0.9999999317970618  1.512719650320837e-08  7.079110189484023e-11  1.0000
  F   F1        1.0  0.2226986642409785  0.22269866089115756  0.7773013492142431  1.0000
  F   F2        1.0  0.7773014009081775  0.7773013133327801  0.2226986767540027  1.0000
  F   F3        1.0  0.7773013635589688  0.22269863675071988  0.22269869761505695  1.0000
  F   F4        1.0  0.22269869224693745  0.7773013288291055  0.7773013373468697  1.0000
  F   F5        1.0  0.22269864645007043  0.7773013402109733  0.22269872417950146  1.0000
  F   F6        1.0  0.7773013423251951  0.2226986858776378  0.7773013175722965  1.0000
