data_image0
_chemical_formula_structural       Ba2BeBr6
_chemical_formula_sum              "Ba2 Be1 Br6"
_cell_length_a       7.139657758264437
_cell_length_b       7.139657804599123
_cell_length_c       7.139657894995865
_cell_angle_alpha    59.999999330459715
_cell_angle_beta     60.000000296968565
_cell_angle_gamma    60.000000326828555

_space_group_name_H-M_alt    "P 1"
_space_group_IT_number       1

loop_
  _space_group_symop_operation_xyz
  'x, y, z'

loop_
  _atom_site_type_symbol
  _atom_site_label
  _atom_site_symmetry_multiplicity
  _atom_site_fract_x
  _atom_site_fract_y
  _atom_site_fract_z
  _atom_site_occupancy
  Ba  Ba1       1.0  0.24999996464770602  0.24999998298985476  0.2500000166109836  1.0000
  Ba  Ba2       1.0  0.7500000457567595  0.749999988424022  0.7500000102239954  1.0000
  Be  Be1       1.0  0.9999999941025832  0.9999999982845887  1.501143266635972e-08  1.0000
  Br  Br1       1.0  0.24259060574127994  0.24259059913730674  0.7574093841009707  1.0000
  Br  Br2       1.0  0.757409379243168  0.7574094048693825  0.24259059993004548  1.0000
  Br  Br3       1.0  0.7574094297236794  0.24259056426536202  0.24259062327333963  1.0000
  Br  Br4       1.0  0.24259055504772442  0.757409479195784  0.7574093439382245  1.0000
  Br  Br5       1.0  0.24259057713117815  0.7574094275759287  0.24259064273178177  1.0000
  Br  Br6       1.0  0.7574094367853833  0.24259055756123754  0.7574093698829951  1.0000
