data_image0
_chemical_formula_structural       Ba2BeCl6
_chemical_formula_sum              "Ba2 Be1 Cl6"
_cell_length_a       6.790615824459952
_cell_length_b       6.79061605913627
_cell_length_c       6.790616027153139
_cell_angle_alpha    59.99999937940967
_cell_angle_beta     59.99999931583683
_cell_angle_gamma    60.000002268227334

_space_group_name_H-M_alt    "P 1"
_space_group_IT_number       1

loop_
  _space_group_symop_operation_xyz
  'x, y, z'

loop_
  _atom_site_type_symbol
  _atom_site_label
  _atom_site_symmetry_multiplicity
  _atom_site_fract_x
  _atom_site_fract_y
  _atom_site_fract_z
  _atom_site_occupancy
  Ba  Ba1       1.0  0.24999998534103776  0.2500000015406086  0.2500000448992621  1.0000
  Ba  Ba2       1.0  0.7500000133221828  0.7500000316755934  0.7499999644033888  1.0000
  Be  Be1       1.0  0.9999999599970357  0.9999999873749088  2.63140277385598e-08  1.0000
  Cl  Cl1       1.0  0.23962583841287904  0.23962583342402813  0.7603741710070064  1.0000
  Cl  Cl2       1.0  0.7603742223443025  0.7603740645233517  0.2396258410128058  1.0000
  Cl  Cl3       1.0  0.760374103599115  0.23962596216050705  0.23962585263661235  1.0000
  Cl  Cl4       1.0  0.2396258876611678  0.7603740728592792  0.7603741388490288  1.0000
  Cl  Cl5       1.0  0.23962590145081436  0.7603740726285241  0.23962590011830667  1.0000
  Cl  Cl6       1.0  0.7603740857042538  0.23962596960559956  0.7603740750865688  1.0000
