data_image0
_chemical_formula_structural       Ba2CoCl6
_chemical_formula_sum              "Ba2 Co1 Cl6"
_cell_length_a       6.912380592499329
_cell_length_b       6.912380567403798
_cell_length_c       6.912380622631508
_cell_angle_alpha    59.99999950517672
_cell_angle_beta     59.99999954206016
_cell_angle_gamma    60.00000076856257

_space_group_name_H-M_alt    "P 1"
_space_group_IT_number       1

loop_
  _space_group_symop_operation_xyz
  'x, y, z'

loop_
  _atom_site_type_symbol
  _atom_site_label
  _atom_site_symmetry_multiplicity
  _atom_site_fract_x
  _atom_site_fract_y
  _atom_site_fract_z
  _atom_site_occupancy
  Ba  Ba1       1.0  0.2500000129958908  0.24999995059494978  0.2500000097525122  1.0000
  Ba  Ba2       1.0  0.749999997544029  0.7499999811272291  0.750000021475158  1.0000
  Co  Co1       1.0  1.5425257176218925e-08  0.9999998334495376  1.941903296889939e-07  1.0000
  Cl  Cl1       1.0  0.2432280902945861  0.24322802570587454  0.7567719594254423  1.0000
  Cl  Cl2       1.0  0.7567720659274323  0.7567721505265599  0.2432278824927684  1.0000
  Cl  Cl3       1.0  0.7567720214829751  0.2432279229286183  0.24322804360211675  1.0000
  Cl  Cl4       1.0  0.2432279579923428  0.7567720318271349  0.7567719959811061  1.0000
  Cl  Cl5       1.0  0.24322795689034826  0.7567720750838778  0.24322795819005083  1.0000
  Cl  Cl6       1.0  0.7567718889608372  0.24322802496057513  0.7567719323396085  1.0000
