data_image0
_chemical_formula_structural       Ba2CF6
_chemical_formula_sum              "Ba2 C1 F6"
_cell_length_a       5.761230123160675
_cell_length_b       5.761230383149342
_cell_length_c       5.761229831537523
_cell_angle_alpha    60.00000021560403
_cell_angle_beta     60.0000003770824
_cell_angle_gamma    59.99999964715193

_space_group_name_H-M_alt    "P 1"
_space_group_IT_number       1

loop_
  _space_group_symop_operation_xyz
  'x, y, z'

loop_
  _atom_site_type_symbol
  _atom_site_label
  _atom_site_symmetry_multiplicity
  _atom_site_fract_x
  _atom_site_fract_y
  _atom_site_fract_z
  _atom_site_occupancy
  Ba  Ba1       1.0  0.2500000049474326  0.24999990330634053  0.25000010627350355  1.0000
  Ba  Ba2       1.0  0.7500000060123462  0.7499998927411888  0.7500000096496137  1.0000
  C   C1        1.0  3.522205846746709e-09  2.5510069813829498e-08  0.9999999525047919  1.0000
  F   F1        1.0  0.23570536927748315  0.23570540501998377  0.7642946692378904  1.0000
  F   F2        1.0  0.7642946047301187  0.7642946822674971  0.23570540285687777  1.0000
  F   F3        1.0  0.7642945843509519  0.23570540283238836  0.23570537843373415  1.0000
  F   F4        1.0  0.23570538496037616  0.7642946504416726  0.7642945324988688  1.0000
  F   F5        1.0  0.23570535383972246  0.7642946442787529  0.2357053785078254  1.0000
  F   F6        1.0  0.7642946785554485  0.23570539411443187  0.7642945708099523  1.0000
