data_image0
_chemical_formula_structural       Ba2CoI6
_chemical_formula_sum              "Ba2 Co1 I6"
_cell_length_a       7.843181515305622
_cell_length_b       7.843181532398382
_cell_length_c       7.8431818069507
_cell_angle_alpha    59.99999840364263
_cell_angle_beta     59.99999856474957
_cell_angle_gamma    60.00000215171189

_space_group_name_H-M_alt    "P 1"
_space_group_IT_number       1

loop_
  _space_group_symop_operation_xyz
  'x, y, z'

loop_
  _atom_site_type_symbol
  _atom_site_label
  _atom_site_symmetry_multiplicity
  _atom_site_fract_x
  _atom_site_fract_y
  _atom_site_fract_z
  _atom_site_occupancy
  Ba  Ba1       1.0  0.24999998699342954  0.2499999772268496  0.2500000034808464  1.0000
  Ba  Ba2       1.0  0.749999988103034  0.7500000534807401  0.7499999602059326  1.0000
  Co  Co1       1.0  2.669416109964498e-08  0.99999996408456  3.266048014786697e-08  1.0000
  I   I1        1.0  0.24453557009541896  0.24453561083302722  0.7554643998102075  1.0000
  I   I2        1.0  0.7554644190395896  0.7554644042591537  0.24453560673976432  1.0000
  I   I3        1.0  0.7554644092503988  0.24453553491307226  0.2445356396366931  1.0000
  I   I4        1.0  0.24453562216353517  0.755464450509833  0.7554643618834467  1.0000
  I   I5        1.0  0.24453557192913708  0.7554644542143916  0.24453557734632306  1.0000
  I   I6        1.0  0.755464404565577  0.24453555463162552  0.7554644195219867  1.0000
