data_image0
_chemical_formula_structural       Ba2CoF6
_chemical_formula_sum              "Ba2 Co1 F6"
_cell_length_a       5.84254058085368
_cell_length_b       5.842540373341289
_cell_length_c       5.842540560471252
_cell_angle_alpha    59.99999947497563
_cell_angle_beta     59.99999905726874
_cell_angle_gamma    60.000000249645794

_space_group_name_H-M_alt    "P 1"
_space_group_IT_number       1

loop_
  _space_group_symop_operation_xyz
  'x, y, z'

loop_
  _atom_site_type_symbol
  _atom_site_label
  _atom_site_symmetry_multiplicity
  _atom_site_fract_x
  _atom_site_fract_y
  _atom_site_fract_z
  _atom_site_occupancy
  Ba  Ba1       1.0  0.25000003174892305  0.25000000348011864  0.24999999676003004  1.0000
  Ba  Ba2       1.0  0.7499999821760011  0.7499999286864472  0.7500000534607456  1.0000
  Co  Co1       1.0  0.9999999820140593  0.9999999413048879  1.187849828645996e-07  1.0000
  F   F1        1.0  0.23986882065992468  0.23986890490129334  0.7601311139388554  1.0000
  F   F2        1.0  0.7601311606428929  0.7601311488480048  0.23986883018457755  1.0000
  F   F3        1.0  0.7601312067681446  0.2398688258468748  0.23986880538150082  1.0000
  F   F4        1.0  0.23986885572675204  0.7601311503410259  0.7601311660235216  1.0000
  F   F5        1.0  0.23986882077459448  0.7601312184774048  0.2398687877859791  1.0000
  F   F6        1.0  0.760131154698439  0.2398688646194496  0.7601311428669836  1.0000
