data_image0
_chemical_formula_structural       Ba2CaCl6
_chemical_formula_sum              "Ba2 Ca1 Cl6"
_cell_length_a       7.177351810164692
_cell_length_b       7.177351834139956
_cell_length_c       7.177351791263353
_cell_angle_alpha    59.99999940523585
_cell_angle_beta     60.00000015168252
_cell_angle_gamma    60.00000073293577

_space_group_name_H-M_alt    "P 1"
_space_group_IT_number       1

loop_
  _space_group_symop_operation_xyz
  'x, y, z'

loop_
  _atom_site_type_symbol
  _atom_site_label
  _atom_site_symmetry_multiplicity
  _atom_site_fract_x
  _atom_site_fract_y
  _atom_site_fract_z
  _atom_site_occupancy
  Ba  Ba1       1.0  0.25000000574555986  0.24999999912200677  0.2499999159899865  1.0000
  Ba  Ba2       1.0  0.7499999780564067  0.7499999990724192  0.7500000815862651  1.0000
  Ca  Ca1       1.0  7.218458735213644e-08  3.9247250626531075e-08  0.9999999526437101  1.0000
  Cl  Cl1       1.0  0.2585341189172955  0.2585340548431841  0.7414659198813224  1.0000
  Cl  Cl2       1.0  0.7414658171585142  0.7414658307286977  0.25853418294816805  1.0000
  Cl  Cl3       1.0  0.7414658627459596  0.2585341765997731  0.2585340970624859  1.0000
  Cl  Cl4       1.0  0.2585341566282956  0.7414658403650767  0.7414658984212971  1.0000
  Cl  Cl5       1.0  0.2585341524392763  0.7414658857745395  0.2585340777815427  1.0000
  Cl  Cl6       1.0  0.7414658382356585  0.2585341738503648  0.7414658786766274  1.0000
