data_image0
_chemical_formula_structural       Ba2CrI6
_chemical_formula_sum              "Ba2 Cr1 I6"
_cell_length_a       7.966560807809364
_cell_length_b       7.966560650829021
_cell_length_c       7.966560626176761
_cell_angle_alpha    60.00000137832843
_cell_angle_beta     59.999998309562635
_cell_angle_gamma    59.99999940930242

_space_group_name_H-M_alt    "P 1"
_space_group_IT_number       1

loop_
  _space_group_symop_operation_xyz
  'x, y, z'

loop_
  _atom_site_type_symbol
  _atom_site_label
  _atom_site_symmetry_multiplicity
  _atom_site_fract_x
  _atom_site_fract_y
  _atom_site_fract_z
  _atom_site_occupancy
  Ba  Ba1       1.0  0.2499999818661141  0.24999995398255795  0.25000002445895214  1.0000
  Ba  Ba2       1.0  0.7500000260606834  0.7500000510425971  0.7499999762556296  1.0000
  Cr  Cr1       1.0  0.9999999712750893  0.9999999861637833  0.9999998907348935  1.0000
  I   I1        1.0  0.2470326443847888  0.24703266372737018  0.7529673505182177  1.0000
  I   I2        1.0  0.7529673418155802  0.7529673151627151  0.2470326967215563  1.0000
  I   I3        1.0  0.7529673112971785  0.24703270153416165  0.2470326702198934  1.0000
  I   I4        1.0  0.24703265720095494  0.75296736959735  0.7529673560684953  1.0000
  I   I5        1.0  0.24703269509638054  0.7529672976486009  0.2470326794261878  1.0000
  I   I6        1.0  0.7529673746738037  0.24703265664377058  0.7529673596667299  1.0000
