data_image0
_chemical_formula_structural       Ba2CCl6
_chemical_formula_sum              "Ba2 C1 Cl6"
_cell_length_a       6.899709304125369
_cell_length_b       6.899709497114944
_cell_length_c       6.899709796617408
_cell_angle_alpha    59.99999873175703
_cell_angle_beta     59.99999936427268
_cell_angle_gamma    59.99999681666689

_space_group_name_H-M_alt    "P 1"
_space_group_IT_number       1

loop_
  _space_group_symop_operation_xyz
  'x, y, z'

loop_
  _atom_site_type_symbol
  _atom_site_label
  _atom_site_symmetry_multiplicity
  _atom_site_fract_x
  _atom_site_fract_y
  _atom_site_fract_z
  _atom_site_occupancy
  Ba  Ba1       1.0  0.24999992229849596  0.2500000668859501  0.2500000092297557  1.0000
  Ba  Ba2       1.0  0.7500000128261687  0.7500000000752329  0.749999999217893  1.0000
  C   C1        1.0  3.624382012979786e-08  0.9999999715989214  4.774647609965126e-09  1.0000
  Cl  Cl1       1.0  0.2503675945887441  0.2503677094110657  0.7496323506231237  1.0000
  Cl  Cl2       1.0  0.7496322717696075  0.7496322776720895  0.25036773359603093  1.0000
  Cl  Cl3       1.0  0.7496324774921777  0.2503676479657046  0.25036761536880153  1.0000
  Cl  Cl4       1.0  0.2503676586963081  0.7496323479927786  0.749632272973509  1.0000
  Cl  Cl5       1.0  0.25036766669303906  0.7496323130225723  0.2503676693181157  1.0000
  Cl  Cl6       1.0  0.749632357283527  0.25036765808497147  0.7496323629211114  1.0000
