data_image0
_chemical_formula_structural       Ba2CdF6
_chemical_formula_sum              "Ba2 Cd1 F6"
_cell_length_a       6.015182939887461
_cell_length_b       6.015182999197882
_cell_length_c       6.015183038070584
_cell_angle_alpha    59.9999997561973
_cell_angle_beta     59.999999474400916
_cell_angle_gamma    60.00000139537094

_space_group_name_H-M_alt    "P 1"
_space_group_IT_number       1

loop_
  _space_group_symop_operation_xyz
  'x, y, z'

loop_
  _atom_site_type_symbol
  _atom_site_label
  _atom_site_symmetry_multiplicity
  _atom_site_fract_x
  _atom_site_fract_y
  _atom_site_fract_z
  _atom_site_occupancy
  Ba  Ba1       1.0  0.2500000353681861  0.24999997665671073  0.2500000340173393  1.0000
  Ba  Ba2       1.0  0.7499999967613817  0.7499999930888933  0.7499999755428436  1.0000
  Cd  Cd1       1.0  5.080233438788614e-09  2.036089200136955e-09  3.0916778869870775e-09  1.0000
  F   F1        1.0  0.25577972456479203  0.25577974740274395  0.7442202543319195  1.0000
  F   F2        1.0  0.744220259883075  0.7442202732450874  0.25577973366848245  1.0000
  F   F3        1.0  0.7442202051751482  0.25577979620419117  0.25577976716830725  1.0000
  F   F4        1.0  0.25577976548587866  0.744220242768442  0.7442202252129533  1.0000
  F   F5        1.0  0.25577974299399625  0.7442202409250965  0.255779759110033  1.0000
  F   F6        1.0  0.7442202531081544  0.2557797390009526  0.7442202434241182  1.0000
