data_image0
_chemical_formula_structural       Ba2CdI6
_chemical_formula_sum              "Ba2 Cd1 I6"
_cell_length_a       8.058636686838073
_cell_length_b       8.058636655445117
_cell_length_c       8.058636498771387
_cell_angle_alpha    59.999999926395596
_cell_angle_beta     60.00000089458746
_cell_angle_gamma    59.99999764891275

_space_group_name_H-M_alt    "P 1"
_space_group_IT_number       1

loop_
  _space_group_symop_operation_xyz
  'x, y, z'

loop_
  _atom_site_type_symbol
  _atom_site_label
  _atom_site_symmetry_multiplicity
  _atom_site_fract_x
  _atom_site_fract_y
  _atom_site_fract_z
  _atom_site_occupancy
  Ba  Ba1       1.0  0.2499999429186298  0.2499999524185958  0.249999943326364  1.0000
  Ba  Ba2       1.0  0.7500000528601652  0.7500000274724444  0.7500000820261302  1.0000
  Cd  Cd1       1.0  4.349279636263604e-08  0.9999999984802073  0.9999999653635464  1.0000
  I   I1        1.0  0.2571733277495301  0.2571733448512019  0.742826663938245  1.0000
  I   I2        1.0  0.7428266500525188  0.742826676074214  0.25717332754914923  1.0000
  I   I3        1.0  0.7428266998354714  0.25717332765011375  0.25717333999399244  1.0000
  I   I4        1.0  0.2571732773010569  0.7428266780773854  0.7428266817614055  1.0000
  I   I5        1.0  0.2571733334799884  0.7428266624910312  0.25717333281619725  1.0000
  I   I6        1.0  0.7428266735010374  0.257173331078134  0.7428266614825483  1.0000
