data_image0
_chemical_formula_structural       Ba2CdCl6
_chemical_formula_sum              "Ba2 Cd1 Cl6"
_cell_length_a       7.069523431389225
_cell_length_b       7.069523329855451
_cell_length_c       7.0695232899342155
_cell_angle_alpha    60.000000224120264
_cell_angle_beta     59.999999673826835
_cell_angle_gamma    59.99999974485315

_space_group_name_H-M_alt    "P 1"
_space_group_IT_number       1

loop_
  _space_group_symop_operation_xyz
  'x, y, z'

loop_
  _atom_site_type_symbol
  _atom_site_label
  _atom_site_symmetry_multiplicity
  _atom_site_fract_x
  _atom_site_fract_y
  _atom_site_fract_z
  _atom_site_occupancy
  Ba  Ba1       1.0  0.24999994506119538  0.25000002124014087  0.25000007234582483  1.0000
  Ba  Ba2       1.0  0.7499999921182574  0.749999999620541  0.7499999711724014  1.0000
  Cd  Cd1       1.0  2.786602843037746e-08  0.9999999948027121  0.9999999235975929  1.0000
  Cl  Cl1       1.0  0.25636138202036274  0.25636135957321554  0.7436385962509894  1.0000
  Cl  Cl2       1.0  0.7436386092577965  0.7436386508928906  0.2563613348857287  1.0000
  Cl  Cl3       1.0  0.743638591013713  0.25636139452555795  0.2563613475865761  1.0000
  Cl  Cl4       1.0  0.25636133748659434  0.7436386817728583  0.7436386541635627  1.0000
  Cl  Cl5       1.0  0.2563614458662679  0.7436385965907678  0.25636139645896455  1.0000
  Cl  Cl6       1.0  0.7436386695154007  0.2563613012674404  0.7436387029162184  1.0000
