data_image0
_chemical_formula_structural       Ba2CrBr6
_chemical_formula_sum              "Ba2 Cr1 Br6"
_cell_length_a       7.317542032041765
_cell_length_b       7.317542122715866
_cell_length_c       7.3175420906781925
_cell_angle_alpha    60.00000047161379
_cell_angle_beta     59.99999903723715
_cell_angle_gamma    59.99999709096032

_space_group_name_H-M_alt    "P 1"
_space_group_IT_number       1

loop_
  _space_group_symop_operation_xyz
  'x, y, z'

loop_
  _atom_site_type_symbol
  _atom_site_label
  _atom_site_symmetry_multiplicity
  _atom_site_fract_x
  _atom_site_fract_y
  _atom_site_fract_z
  _atom_site_occupancy
  Ba  Ba1       1.0  0.25000003367886714  0.24999999662428682  0.2500000326148578  1.0000
  Ba  Ba2       1.0  0.7499999679275685  0.7499999915465747  0.7499999749743194  1.0000
  Cr  Cr1       1.0  2.304493627707093e-07  5.1885024620122686e-08  0.9999999134959687  1.0000
  Br  Br1       1.0  0.2457416541578162  0.24574162795170007  0.7542583444979247  1.0000
  Br  Br2       1.0  0.7542581702215704  0.7542582480805488  0.24574175857723685  1.0000
  Br  Br3       1.0  0.7542583409065488  0.24574170000808468  0.24574163264372098  1.0000
  Br  Br4       1.0  0.24574161452245374  0.7542583651534723  0.754258384137249  1.0000
  Br  Br5       1.0  0.24574167236180983  0.7542583585815926  0.24574158963650328  1.0000
  Br  Br6       1.0  0.7542583248606944  0.24574166641090495  0.7542583566367117  1.0000
