data_image0
_chemical_formula_structural       Ba2CBr6
_chemical_formula_sum              "Ba2 C1 Br6"
_cell_length_a       7.318688381746701
_cell_length_b       7.318688632697223
_cell_length_c       7.3186884053263235
_cell_angle_alpha    59.99999809975162
_cell_angle_beta     59.99999811432612
_cell_angle_gamma    59.99999635190327

_space_group_name_H-M_alt    "P 1"
_space_group_IT_number       1

loop_
  _space_group_symop_operation_xyz
  'x, y, z'

loop_
  _atom_site_type_symbol
  _atom_site_label
  _atom_site_symmetry_multiplicity
  _atom_site_fract_x
  _atom_site_fract_y
  _atom_site_fract_z
  _atom_site_occupancy
  Ba  Ba1       1.0  0.24999996560401538  0.24999998133450546  0.2500000022434812  1.0000
  Ba  Ba2       1.0  0.7500000474932549  0.7500000126149012  0.7499999585705701  1.0000
  C   C1        1.0  0.9999999851303757  3.514242587361418e-08  0.9999997862752072  1.0000
  Br  Br1       1.0  0.24771696865574241  0.24771685049561445  0.7522831136771717  1.0000
  Br  Br2       1.0  0.7522830403454008  0.752283165208621  0.24771694351763682  1.0000
  Br  Br3       1.0  0.7522831037895027  0.24771686372319987  0.2477169024924194  1.0000
  Br  Br4       1.0  0.24771696229748955  0.7522831369199973  0.7522831063626823  1.0000
  Br  Br5       1.0  0.24771681534865336  0.7522831268471412  0.24771694219642504  1.0000
  Br  Br6       1.0  0.752283127611559  0.24771682191915229  0.7522832320433288  1.0000
