data_image0
_chemical_formula_structural       Ba2CuI6
_chemical_formula_sum              "Ba2 Cu1 I6"
_cell_length_a       7.841777240973921
_cell_length_b       7.841777528817414
_cell_length_c       7.841776863968926
_cell_angle_alpha    60.000002509149304
_cell_angle_beta     60.00000185057501
_cell_angle_gamma    59.99999905905276

_space_group_name_H-M_alt    "P 1"
_space_group_IT_number       1

loop_
  _space_group_symop_operation_xyz
  'x, y, z'

loop_
  _atom_site_type_symbol
  _atom_site_label
  _atom_site_symmetry_multiplicity
  _atom_site_fract_x
  _atom_site_fract_y
  _atom_site_fract_z
  _atom_site_occupancy
  Ba  Ba1       1.0  0.2500001240874795  0.24999999128214778  0.2499999356194603  1.0000
  Ba  Ba2       1.0  0.749999901805511  0.7500000378810984  0.7499999909411982  1.0000
  Cu  Cu1       1.0  0.9999999901237953  3.1236412082821886e-09  1.1027608876434434e-08  1.0000
  I   I1        1.0  0.2500132130630118  0.25001307560893393  0.7499868461647923  1.0000
  I   I2        1.0  0.7499867736237776  0.7499868988905977  0.2500132089449802  1.0000
  I   I3        1.0  0.7499868407552306  0.25001314652095713  0.25001322647943236  1.0000
  I   I4        1.0  0.25001317396770084  0.7499868763950076  0.7499867291934352  1.0000
  I   I5        1.0  0.2500132144891167  0.7499868348301929  0.2500132163122501  1.0000
  I   I6        1.0  0.7499867668282856  0.2500131381075185  0.749986830786135  1.0000
