data_image0
_chemical_formula_structural       Ba2CrCl6
_chemical_formula_sum              "Ba2 Cr1 Cl6"
_cell_length_a       6.962382677966187
_cell_length_b       6.962382617836147
_cell_length_c       6.962382545519629
_cell_angle_alpha    60.00000043153285
_cell_angle_beta     60.00000039133721
_cell_angle_gamma    60.00000039497449

_space_group_name_H-M_alt    "P 1"
_space_group_IT_number       1

loop_
  _space_group_symop_operation_xyz
  'x, y, z'

loop_
  _atom_site_type_symbol
  _atom_site_label
  _atom_site_symmetry_multiplicity
  _atom_site_fract_x
  _atom_site_fract_y
  _atom_site_fract_z
  _atom_site_occupancy
  Ba  Ba1       1.0  0.24999995675988923  0.2500000163220142  0.25000002570585744  1.0000
  Ba  Ba2       1.0  0.7500000181032773  0.7500000085070023  0.7499999746014292  1.0000
  Cr  Cr1       1.0  5.262323528964262e-08  0.9999997625230245  2.1738409454094203e-07  1.0000
  Cl  Cl1       1.0  0.2433891859560512  0.24338918420869182  0.7566108124126432  1.0000
  Cl  Cl2       1.0  0.7566109168259464  0.7566109743110672  0.24338906714388633  1.0000
  Cl  Cl3       1.0  0.7566108294529537  0.24338915003461126  0.24338915008220613  1.0000
  Cl  Cl4       1.0  0.2433891927704821  0.756610797394502  0.756610829337649  1.0000
  Cl  Cl5       1.0  0.24338910861876126  0.7566108843758395  0.24338910006770853  1.0000
  Cl  Cl6       1.0  0.7566107385899029  0.24338922488943462  0.7566108241809851  1.0000
