data_image0
_chemical_formula_structural       Ba2CuCl6
_chemical_formula_sum              "Ba2 Cu1 Cl6"
_cell_length_a       6.870062154371184
_cell_length_b       6.8700620637264445
_cell_length_c       6.87006220684716
_cell_angle_alpha    60.000000592888746
_cell_angle_beta     60.000000073667124
_cell_angle_gamma    60.00000177594785

_space_group_name_H-M_alt    "P 1"
_space_group_IT_number       1

loop_
  _space_group_symop_operation_xyz
  'x, y, z'

loop_
  _atom_site_type_symbol
  _atom_site_label
  _atom_site_symmetry_multiplicity
  _atom_site_fract_x
  _atom_site_fract_y
  _atom_site_fract_z
  _atom_site_occupancy
  Ba  Ba1       1.0  0.24999995825380394  0.2500000377465482  0.25000000017352175  1.0000
  Ba  Ba2       1.0  0.7499999967470458  0.7499999741869025  0.7500000439882998  1.0000
  Cu  Cu1       1.0  7.113417229899811e-09  8.913637505651829e-09  0.9999999817973365  1.0000
  Cl  Cl1       1.0  0.24689659737418812  0.2468966116907698  0.753103394560754  1.0000
  Cl  Cl2       1.0  0.7531034330749642  0.7531033806326793  0.24689659111450826  1.0000
  Cl  Cl3       1.0  0.7531033950512583  0.24689659838641176  0.24689661566999746  1.0000
  Cl  Cl4       1.0  0.24689662432869103  0.7531033868061272  0.7531033965724119  1.0000
  Cl  Cl5       1.0  0.24689659998507313  0.7531033943353141  0.24689659996206564  1.0000
  Cl  Cl6       1.0  0.7531033922986193  0.24689660155358903  0.7531033928240631  1.0000
