data_image0
_chemical_formula_structural       Ba2CI6
_chemical_formula_sum              "Ba2 C1 I6"
_cell_length_a       7.832021872257374
_cell_length_b       7.8320218756724715
_cell_length_c       7.8320218273591795
_cell_angle_alpha    59.99999949937832
_cell_angle_beta     60.000001533889105
_cell_angle_gamma    60.00000129285952

_space_group_name_H-M_alt    "P 1"
_space_group_IT_number       1

loop_
  _space_group_symop_operation_xyz
  'x, y, z'

loop_
  _atom_site_type_symbol
  _atom_site_label
  _atom_site_symmetry_multiplicity
  _atom_site_fract_x
  _atom_site_fract_y
  _atom_site_fract_z
  _atom_site_occupancy
  Ba  Ba1       1.0  0.25000000956859897  0.2500001149290195  0.2499999742404382  1.0000
  Ba  Ba2       1.0  0.750000011259309  0.7499999194427351  0.7499999857923423  1.0000
  C   C1        1.0  9.203728367425054e-09  0.9999999812348095  0.9999999958430646  1.0000
  I   I1        1.0  0.24776489557652598  0.24776499743092728  0.7522350792904277  1.0000
  I   I2        1.0  0.7522350927112884  0.7522350682161445  0.2477649260630739  1.0000
  I   I3        1.0  0.752235022105428  0.2477649580084665  0.24776493049786338  1.0000
  I   I4        1.0  0.24776499017547254  0.7522350091213542  0.7522350750902453  1.0000
  I   I5        1.0  0.24776497249285964  0.7522349797471666  0.247764963436168  1.0000
  I   I6        1.0  0.7522349928776977  0.24776497330876024  0.752235082858535  1.0000
