data_image0
_chemical_formula_structural       Ba2CrF6
_chemical_formula_sum              "Ba2 Cr1 F6"
_cell_length_a       5.925867782434404
_cell_length_b       5.925867462425257
_cell_length_c       5.925868104433039
_cell_angle_alpha    59.99999894554449
_cell_angle_beta     60.00000009252069
_cell_angle_gamma    60.00000080675833

_space_group_name_H-M_alt    "P 1"
_space_group_IT_number       1

loop_
  _space_group_symop_operation_xyz
  'x, y, z'

loop_
  _atom_site_type_symbol
  _atom_site_label
  _atom_site_symmetry_multiplicity
  _atom_site_fract_x
  _atom_site_fract_y
  _atom_site_fract_z
  _atom_site_occupancy
  Ba  Ba1       1.0  0.24999998563698994  0.2500000174746118  0.2500000418579029  1.0000
  Ba  Ba2       1.0  0.7500000161180208  0.7499999449514078  0.749999903328992  1.0000
  Cr  Cr1       1.0  0.9999999782313372  0.9999999834657785  0.9999999314005853  1.0000
  F   F1        1.0  0.2368571136843183  0.23685708052023113  0.7631429168106404  1.0000
  F   F2        1.0  0.7631429393820424  0.7631429501094463  0.23685710868261944  1.0000
  F   F3        1.0  0.76314287396496  0.23685710458399584  0.23685714532140023  1.0000
  F   F4        1.0  0.23685710828400972  0.7631428929772419  0.7631429321147734  1.0000
  F   F5        1.0  0.2368570740692931  0.7631428837120021  0.23685714137320818  1.0000
  F   F6        1.0  0.7631429468168786  0.23685709731501686  0.7631428980112105  1.0000
