data_image0
_chemical_formula_structural       Ba2CoBr6
_chemical_formula_sum              "Ba2 Co1 Br6"
_cell_length_a       7.260387140883849
_cell_length_b       7.260387356575651
_cell_length_c       7.260387300465025
_cell_angle_alpha    60.00000021366542
_cell_angle_beta     60.000000861426415
_cell_angle_gamma    59.99999973062918

_space_group_name_H-M_alt    "P 1"
_space_group_IT_number       1

loop_
  _space_group_symop_operation_xyz
  'x, y, z'

loop_
  _atom_site_type_symbol
  _atom_site_label
  _atom_site_symmetry_multiplicity
  _atom_site_fract_x
  _atom_site_fract_y
  _atom_site_fract_z
  _atom_site_occupancy
  Ba  Ba1       1.0  0.250000002269094  0.2500000318439149  0.24999997343740046  1.0000
  Ba  Ba2       1.0  0.7500000072428388  0.7499999892579013  0.7500000062874327  1.0000
  Co  Co1       1.0  0.999999897571426  0.9999999780704785  0.9999999754068161  1.0000
  Br  Br1       1.0  0.24694576516529945  0.24694580441522035  0.7530542097679337  1.0000
  Br  Br2       1.0  0.7530542868853004  0.753054265606301  0.2469457283597247  1.0000
  Br  Br3       1.0  0.7530542445676275  0.24694575302052657  0.24694575363451807  1.0000
  Br  Br4       1.0  0.24694573557820085  0.7530542512124258  0.7530542671131798  1.0000
  Br  Br5       1.0  0.24694578648344606  0.7530541887026985  0.2469458040511437  1.0000
  Br  Br6       1.0  0.7530542724773857  0.24694574130725105  0.7530542763807193  1.0000
