data_image0
_chemical_formula_structural       Ba2CdBr6
_chemical_formula_sum              "Ba2 Cd1 Br6"
_cell_length_a       7.44797697922917
_cell_length_b       7.447977070923351
_cell_length_c       7.44797702719527
_cell_angle_alpha    60.00000039891244
_cell_angle_beta     60.00000175224884
_cell_angle_gamma    60.000000851946844

_space_group_name_H-M_alt    "P 1"
_space_group_IT_number       1

loop_
  _space_group_symop_operation_xyz
  'x, y, z'

loop_
  _atom_site_type_symbol
  _atom_site_label
  _atom_site_symmetry_multiplicity
  _atom_site_fract_x
  _atom_site_fract_y
  _atom_site_fract_z
  _atom_site_occupancy
  Ba  Ba1       1.0  0.249999965987292  0.25000004227889333  0.24999998068673562  1.0000
  Ba  Ba2       1.0  0.7500000542065498  0.7499999278643585  0.7500000412975276  1.0000
  Cd  Cd1       1.0  2.707611608756525e-08  1.644399327406932e-08  3.3288450663335904e-08  1.0000
  Br  Br1       1.0  0.2582901674146716  0.2582901195605319  0.74170984769838  1.0000
  Br  Br2       1.0  0.7417097618725182  0.7417098209835316  0.25829019962999406  1.0000
  Br  Br3       1.0  0.7417098346993717  0.2582901989408455  0.25829012483899366  1.0000
  Br  Br4       1.0  0.25829019640872475  0.7417098221787866  0.7417098084661546  1.0000
  Br  Br5       1.0  0.2582901716831842  0.74170984437984  0.25829016344682737  1.0000
  Br  Br6       1.0  0.7417098138063167  0.25829021127217816  0.741709802254354  1.0000
