data_image0
_chemical_formula_structural       Ba2CaF6
_chemical_formula_sum              "Ba2 Ca1 F6"
_cell_length_a       6.0208764537156645
_cell_length_b       6.020876412170985
_cell_length_c       6.02087649075732
_cell_angle_alpha    60.0000002729415
_cell_angle_beta     59.99999997084641
_cell_angle_gamma    60.00000049866283

_space_group_name_H-M_alt    "P 1"
_space_group_IT_number       1

loop_
  _space_group_symop_operation_xyz
  'x, y, z'

loop_
  _atom_site_type_symbol
  _atom_site_label
  _atom_site_symmetry_multiplicity
  _atom_site_fract_x
  _atom_site_fract_y
  _atom_site_fract_z
  _atom_site_occupancy
  Ba  Ba1       1.0  0.2500000449573486  0.24999993460507633  0.24999999603835185  1.0000
  Ba  Ba2       1.0  0.7499999979284045  0.7499999787533129  0.7500000106400284  1.0000
  Ca  Ca1       1.0  0.999999971328956  2.847829280004293e-08  2.3348804189624233e-08  1.0000
  F   F1        1.0  0.25411975497778444  0.25411977492834265  0.74588024657474  1.0000
  F   F2        1.0  0.7458802291698517  0.7458802686165279  0.2541197642407648  1.0000
  F   F3        1.0  0.7458802408243725  0.2541197493643683  0.2541197582399561  1.0000
  F   F4        1.0  0.25411977741874436  0.745880249428899  0.7458801864854365  1.0000
  F   F5        1.0  0.2541197181672928  0.7458802865076267  0.2541197562896723  1.0000
  F   F6        1.0  0.7458802460276333  0.25411973059311455  0.7458802528109361  1.0000
