data_image0
_chemical_formula_structural       Ba2CaI6
_chemical_formula_sum              "Ba2 Ca1 I6"
_cell_length_a       8.152944450253063
_cell_length_b       8.15294435572315
_cell_length_c       8.152944659886083
_cell_angle_alpha    59.99999940688775
_cell_angle_beta     59.99999881314231
_cell_angle_gamma    60.000001156273186

_space_group_name_H-M_alt    "P 1"
_space_group_IT_number       1

loop_
  _space_group_symop_operation_xyz
  'x, y, z'

loop_
  _atom_site_type_symbol
  _atom_site_label
  _atom_site_symmetry_multiplicity
  _atom_site_fract_x
  _atom_site_fract_y
  _atom_site_fract_z
  _atom_site_occupancy
  Ba  Ba1       1.0  0.2500000273199264  0.25000003379472063  0.2500000252201445  1.0000
  Ba  Ba2       1.0  0.7499999517339903  0.7499999736961597  0.7499999740257968  1.0000
  Ca  Ca1       1.0  0.9999999911021229  0.9999999714579765  0.9999999856030812  1.0000
  I   I1        1.0  0.260951067453216  0.2609510086365141  0.7390489613434746  1.0000
  I   I2        1.0  0.7390489729016336  0.7390490273963904  0.260950980715481  1.0000
  I   I3        1.0  0.7390489659105085  0.260951012074619  0.2609510457320202  1.0000
  I   I4        1.0  0.2609510138012311  0.739049010438379  0.7390489824704719  1.0000
  I   I5        1.0  0.26095102121738156  0.7390489718058546  0.26095107240790316  1.0000
  I   I6        1.0  0.7390489907697986  0.2609509921208863  0.7390489689499969  1.0000
