data_image0
_chemical_formula_structural       Ba2CuBr6
_chemical_formula_sum              "Ba2 Cu1 Br6"
_cell_length_a       7.231644733153186
_cell_length_b       7.231644854867848
_cell_length_c       7.231644612266452
_cell_angle_alpha    59.99999885598204
_cell_angle_beta     60.00000125521585
_cell_angle_gamma    60.000000364912694

_space_group_name_H-M_alt    "P 1"
_space_group_IT_number       1

loop_
  _space_group_symop_operation_xyz
  'x, y, z'

loop_
  _atom_site_type_symbol
  _atom_site_label
  _atom_site_symmetry_multiplicity
  _atom_site_fract_x
  _atom_site_fract_y
  _atom_site_fract_z
  _atom_site_occupancy
  Ba  Ba1       1.0  0.2500000514942301  0.24999998738298607  0.24999991317258569  1.0000
  Ba  Ba2       1.0  0.750000033983246  0.7500001128785528  0.7499999428868664  1.0000
  Cu  Cu1       1.0  0.9999999493888372  0.9999999745961339  5.3218439097079794e-08  1.0000
  Br  Br1       1.0  0.24981599720083372  0.2498159121141722  0.7501840503967395  1.0000
  Br  Br2       1.0  0.7501840402972668  0.750183996771578  0.24981600830897654  1.0000
  Br  Br3       1.0  0.750183993960035  0.24981599284963615  0.2498159348866863  1.0000
  Br  Br4       1.0  0.24981594682913094  0.7501840193451673  0.7501840804174402  1.0000
  Br  Br5       1.0  0.24981592703654154  0.750184024988929  0.24981597843651415  1.0000
  Br  Br6       1.0  0.7501840559290687  0.2498159804315106  0.7501840219321951  1.0000
