data_image0
_chemical_formula_structural       Ba2FeBr6
_chemical_formula_sum              "Ba2 Fe1 Br6"
_cell_length_a       7.296409859290566
_cell_length_b       7.296409879525458
_cell_length_c       7.296409671174815
_cell_angle_alpha    60.00000030080369
_cell_angle_beta     59.999999255611804
_cell_angle_gamma    60.00000142254709

_space_group_name_H-M_alt    "P 1"
_space_group_IT_number       1

loop_
  _space_group_symop_operation_xyz
  'x, y, z'

loop_
  _atom_site_type_symbol
  _atom_site_label
  _atom_site_symmetry_multiplicity
  _atom_site_fract_x
  _atom_site_fract_y
  _atom_site_fract_z
  _atom_site_occupancy
  Ba  Ba1       1.0  0.24999999163708167  0.2500000242596781  0.249999974716839  1.0000
  Ba  Ba2       1.0  0.7500000311812935  0.7499999989224745  0.7500000042117003  1.0000
  Fe  Fe1       1.0  1.8074976038818462e-09  0.9999999328576723  0.9999999709932468  1.0000
  Br  Br1       1.0  0.24710496157567072  0.24710497733766648  0.7528950399025494  1.0000
  Br  Br2       1.0  0.752895070834062  0.7528950408088119  0.2471049285249258  1.0000
  Br  Br3       1.0  0.7528950025085083  0.24710501057788112  0.24710499585966653  1.0000
  Br  Br4       1.0  0.247104927289886  0.7528950495325504  0.7528951084228572  1.0000
  Br  Br5       1.0  0.24710497676469334  0.7528950014929825  0.24710494976228395  1.0000
  Br  Br6       1.0  0.7528950393888599  0.24710495622540057  0.7528950446724952  1.0000
