data_image0
_chemical_formula_structural       Ba2FeF6
_chemical_formula_sum              "Ba2 Fe1 F6"
_cell_length_a       5.880938284777964
_cell_length_b       5.880938351428479
_cell_length_c       5.880938270893007
_cell_angle_alpha    59.99999954033201
_cell_angle_beta     60.000000171844434
_cell_angle_gamma    59.999999837885255

_space_group_name_H-M_alt    "P 1"
_space_group_IT_number       1

loop_
  _space_group_symop_operation_xyz
  'x, y, z'

loop_
  _atom_site_type_symbol
  _atom_site_label
  _atom_site_symmetry_multiplicity
  _atom_site_fract_x
  _atom_site_fract_y
  _atom_site_fract_z
  _atom_site_occupancy
  Ba  Ba1       1.0  0.2500000313208632  0.24999999242587553  0.24999999925650826  1.0000
  Ba  Ba2       1.0  0.7500000326188166  0.7500000022684327  0.7499999632333308  1.0000
  Fe  Fe1       1.0  3.093197914619445e-09  4.3733909827343243e-08  0.9999999221733598  1.0000
  F   F1        1.0  0.2448868843564181  0.2448868308365215  0.7551131407360625  1.0000
  F   F2        1.0  0.7551130956307643  0.7551131388669815  0.24488688642788173  1.0000
  F   F3        1.0  0.7551131529263666  0.2448867973045252  0.24488686120690786  1.0000
  F   F4        1.0  0.24488679620005616  0.7551132119677526  0.7551131837083448  1.0000
  F   F5        1.0  0.2448868218630934  0.7551131924366289  0.2448868337937645  1.0000
  F   F6        1.0  0.7551131866436387  0.2448867918448434  0.7551132007283722  1.0000
