data_image0
_chemical_formula_structural       Ba2FeI6
_chemical_formula_sum              "Ba2 Fe1 I6"
_cell_length_a       7.877127840303017
_cell_length_b       7.877127641917856
_cell_length_c       7.877127782179391
_cell_angle_alpha    59.9999980395153
_cell_angle_beta     59.99999885186461
_cell_angle_gamma    60.00000021549974

_space_group_name_H-M_alt    "P 1"
_space_group_IT_number       1

loop_
  _space_group_symop_operation_xyz
  'x, y, z'

loop_
  _atom_site_type_symbol
  _atom_site_label
  _atom_site_symmetry_multiplicity
  _atom_site_fract_x
  _atom_site_fract_y
  _atom_site_fract_z
  _atom_site_occupancy
  Ba  Ba1       1.0  0.2500001409706394  0.24999995965588845  0.2500001994959128  1.0000
  Ba  Ba2       1.0  0.7499998411286987  0.7500000235651368  0.7499997824395367  1.0000
  Fe  Fe1       1.0  1.2941506074041626e-08  0.9999999875615083  0.9999999692805346  1.0000
  I   I1        1.0  0.24733555813741062  0.24733550036180987  0.752664476733217  1.0000
  I   I2        1.0  0.752664460949613  0.7526644906332731  0.24733554756577153  1.0000
  I   I3        1.0  0.7526644739936622  0.24733555527300766  0.24733554982744377  1.0000
  I   I4        1.0  0.24733550013851918  0.752664487030855  0.7526644877980533  1.0000
  I   I5        1.0  0.24733551759316083  0.7526644471393147  0.24733555297537477  1.0000
  I   I6        1.0  0.752664494593761  0.24733554696539173  0.7526644338644068  1.0000
