data_image0
_chemical_formula_structural       Ba2FeCl6
_chemical_formula_sum              "Ba2 Fe1 Cl6"
_cell_length_a       6.916496141298251
_cell_length_b       6.916496120792709
_cell_length_c       6.9164961024690195
_cell_angle_alpha    60.000001000093135
_cell_angle_beta     59.99999923311003
_cell_angle_gamma    60.000001779919536

_space_group_name_H-M_alt    "P 1"
_space_group_IT_number       1

loop_
  _space_group_symop_operation_xyz
  'x, y, z'

loop_
  _atom_site_type_symbol
  _atom_site_label
  _atom_site_symmetry_multiplicity
  _atom_site_fract_x
  _atom_site_fract_y
  _atom_site_fract_z
  _atom_site_occupancy
  Ba  Ba1       1.0  0.24999996039055117  0.24999995562669614  0.2500000070373902  1.0000
  Ba  Ba2       1.0  0.7500000199213229  0.7500000616635949  0.7500000162772873  1.0000
  Fe  Fe1       1.0  0.9999999193582367  2.6561381355014697e-08  0.9999997451055284  1.0000
  Cl  Cl1       1.0  0.24318171997868215  0.2431817519327789  0.7568182534927839  1.0000
  Cl  Cl2       1.0  0.7568183186639917  0.7568182706697896  0.2431816787217843  1.0000
  Cl  Cl3       1.0  0.7568182047458315  0.24318181881049325  0.24318176954011375  1.0000
  Cl  Cl4       1.0  0.24318166099341304  0.7568183118083804  0.756818374399548  1.0000
  Cl  Cl5       1.0  0.24318185126621697  0.756818136424396  0.24318179760438857  1.0000
  Cl  Cl6       1.0  0.7568183388312075  0.2431816772286031  0.7568183701096729  1.0000
