data_image0
_chemical_formula_structural       Ba2GeI6
_chemical_formula_sum              "Ba2 Ge1 I6"
_cell_length_a       8.054365510094062
_cell_length_b       8.054365597306305
_cell_length_c       8.054365184720892
_cell_angle_alpha    60.00000114690901
_cell_angle_beta     60.00000257844367
_cell_angle_gamma    59.99999732044265

_space_group_name_H-M_alt    "P 1"
_space_group_IT_number       1

loop_
  _space_group_symop_operation_xyz
  'x, y, z'

loop_
  _atom_site_type_symbol
  _atom_site_label
  _atom_site_symmetry_multiplicity
  _atom_site_fract_x
  _atom_site_fract_y
  _atom_site_fract_z
  _atom_site_occupancy
  Ba  Ba1       1.0  0.2500000292756212  0.24999998859138384  0.24999994118155844  1.0000
  Ba  Ba2       1.0  0.7500000000124654  0.7500000098714826  0.750000051502629  1.0000
  Ge  Ge1       1.0  1.720359746335266e-08  0.9999999999999993  0.999999983948825  1.0000
  I   I1        1.0  0.2579998692259483  0.25799980555103896  0.7420001484808134  1.0000
  I   I2        1.0  0.7420001262189296  0.7420002385297563  0.25799982590038567  1.0000
  I   I3        1.0  0.7420001727757696  0.2579997946032034  0.25799980493238384  1.0000
  I   I4        1.0  0.2579998232207402  0.742000170406518  0.742000212433225  1.0000
  I   I5        1.0  0.25799979187207334  0.7420001817651952  0.2579998051892426  1.0000
  I   I6        1.0  0.7420001668350533  0.2579998090946865  0.7420002290700421  1.0000
