data_image0
_chemical_formula_structural       Ba2GeCl6
_chemical_formula_sum              "Ba2 Ge1 Cl6"
_cell_length_a       7.138515215122347
_cell_length_b       7.138515049739545
_cell_length_c       7.138514978723884
_cell_angle_alpha    60.00000223058714
_cell_angle_beta     59.99999981738374
_cell_angle_gamma    59.99999975792787

_space_group_name_H-M_alt    "P 1"
_space_group_IT_number       1

loop_
  _space_group_symop_operation_xyz
  'x, y, z'

loop_
  _atom_site_type_symbol
  _atom_site_label
  _atom_site_symmetry_multiplicity
  _atom_site_fract_x
  _atom_site_fract_y
  _atom_site_fract_z
  _atom_site_occupancy
  Ba  Ba1       1.0  0.24999998424758088  0.24999999327231656  0.2500000517311538  1.0000
  Ba  Ba2       1.0  0.749999991923099  0.7500000175620319  0.7499999710421776  1.0000
  Ge  Ge1       1.0  2.4852192996066887e-08  0.999999969117654  0.9999999133605746  1.0000
  Cl  Cl1       1.0  0.253274255249928  0.25327421766616887  0.746725756508909  1.0000
  Cl  Cl2       1.0  0.7467257352825848  0.7467258034622933  0.25327423992793335  1.0000
  Cl  Cl3       1.0  0.7467257310973329  0.25327425563191497  0.25327420309232507  1.0000
  Cl  Cl4       1.0  0.25327418499356313  0.7467258238298642  0.7467258364199584  1.0000
  Cl  Cl5       1.0  0.2532742861264575  0.7467257336040668  0.2532741914449194  1.0000
  Cl  Cl6       1.0  0.7467258116082736  0.2532741794361938  0.7467258432579048  1.0000
