data_image0
_chemical_formula_structural       Ba2GeBr6
_chemical_formula_sum              "Ba2 Ge1 Br6"
_cell_length_a       7.484217437397838
_cell_length_b       7.484217372324283
_cell_length_c       7.484217458671978
_cell_angle_alpha    60.0000001851361
_cell_angle_beta     59.999999866735926
_cell_angle_gamma    60.00000088429755

_space_group_name_H-M_alt    "P 1"
_space_group_IT_number       1

loop_
  _space_group_symop_operation_xyz
  'x, y, z'

loop_
  _atom_site_type_symbol
  _atom_site_label
  _atom_site_symmetry_multiplicity
  _atom_site_fract_x
  _atom_site_fract_y
  _atom_site_fract_z
  _atom_site_occupancy
  Ba  Ba1       1.0  0.25000001303593394  0.2500000123525833  0.24999998171048346  1.0000
  Ba  Ba2       1.0  0.7499999838621206  0.749999994510393  0.7500000167424349  1.0000
  Ge  Ge1       1.0  0.9999999881251675  0.999999975453448  1.286611196829111e-08  1.0000
  Br  Br1       1.0  0.2569641802868337  0.25696417849000835  0.7430358231496788  1.0000
  Br  Br2       1.0  0.7430358441017058  0.7430358431008994  0.2569641555301765  1.0000
  Br  Br3       1.0  0.7430357937635456  0.2569642018070796  0.2569642149560783  1.0000
  Br  Br4       1.0  0.256964199145035  0.7430357985101496  0.743035798117466  1.0000
  Br  Br5       1.0  0.25696420030867406  0.7430358002242728  0.25696420000353126  1.0000
  Br  Br6       1.0  0.7430357977739275  0.2569641984565194  0.7430357952674804  1.0000
