data_image0
_chemical_formula_structural       Ba2HgBr6
_chemical_formula_sum              "Ba2 Hg1 Br6"
_cell_length_a       7.533163578260774
_cell_length_b       7.533163503965423
_cell_length_c       7.533163586391357
_cell_angle_alpha    59.999999756777015
_cell_angle_beta     59.999999588551354
_cell_angle_gamma    60.00000054106657

_space_group_name_H-M_alt    "P 1"
_space_group_IT_number       1

loop_
  _space_group_symop_operation_xyz
  'x, y, z'

loop_
  _atom_site_type_symbol
  _atom_site_label
  _atom_site_symmetry_multiplicity
  _atom_site_fract_x
  _atom_site_fract_y
  _atom_site_fract_z
  _atom_site_occupancy
  Ba  Ba1       1.0  0.25000007611381275  0.24999992409100563  0.2500000228821144  1.0000
  Ba  Ba2       1.0  0.7499999787037078  0.7500000291500745  0.7499999774140873  1.0000
  Hg  Hg1       1.0  8.246158472309608e-08  6.990958090871174e-08  4.063120851174626e-08  1.0000
  Br  Br1       1.0  0.26120355556560737  0.2612035665543687  0.7387964601510957  1.0000
  Br  Br2       1.0  0.7387962985610516  0.738796354170626  0.2612036952450227  1.0000
  Br  Br3       1.0  0.7387964067814048  0.26120357073616296  0.26120356937451483  1.0000
  Br  Br4       1.0  0.26120364867103235  0.7387963760017002  0.738796350225634  1.0000
  Br  Br5       1.0  0.2612036117462705  0.7387964462161726  0.2612035402290734  1.0000
  Br  Br6       1.0  0.7387963450608326  0.2612036631021075  0.7387963434211438  1.0000
