data_image0
_chemical_formula_structural       Ba2HgF6
_chemical_formula_sum              "Ba2 Hg1 F6"
_cell_length_a       6.090096036791413
_cell_length_b       6.090095991848726
_cell_length_c       6.090096042051596
_cell_angle_alpha    60.00000002590014
_cell_angle_beta     59.99999909290209
_cell_angle_gamma    60.00000027575575

_space_group_name_H-M_alt    "P 1"
_space_group_IT_number       1

loop_
  _space_group_symop_operation_xyz
  'x, y, z'

loop_
  _atom_site_type_symbol
  _atom_site_label
  _atom_site_symmetry_multiplicity
  _atom_site_fract_x
  _atom_site_fract_y
  _atom_site_fract_z
  _atom_site_occupancy
  Ba  Ba1       1.0  0.249999983518701  0.24999996226285584  0.25000003405511656  1.0000
  Ba  Ba2       1.0  0.750000013295925  0.7499999772855305  0.7499999959907728  1.0000
  Hg  Hg1       1.0  0.9999999667323671  5.429817734265075e-08  0.9999999648545747  1.0000
  F   F1        1.0  0.25999762375608615  0.2599976538455359  0.7400023630067978  1.0000
  F   F2        1.0  0.7400023444833417  0.7400023259237226  0.259997669426306  1.0000
  F   F3        1.0  0.7400023403812835  0.2599976913520756  0.25999766753470305  1.0000
  F   F4        1.0  0.25999770502031133  0.7400023185828378  0.7400023243705711  1.0000
  F   F5        1.0  0.2599976850236111  0.740002317375644  0.2599976799038563  1.0000
  F   F6        1.0  0.7400023347142042  0.25999771266970545  0.7400022999999979  1.0000
