data_image0
_chemical_formula_structural       Ba2HgCl6
_chemical_formula_sum              "Ba2 Hg1 Cl6"
_cell_length_a       7.1706321271246205
_cell_length_b       7.17063219114522
_cell_length_c       7.170632341642357
_cell_angle_alpha    59.99999861087103
_cell_angle_beta     59.99999916327229
_cell_angle_gamma    60.00000041330818

_space_group_name_H-M_alt    "P 1"
_space_group_IT_number       1

loop_
  _space_group_symop_operation_xyz
  'x, y, z'

loop_
  _atom_site_type_symbol
  _atom_site_label
  _atom_site_symmetry_multiplicity
  _atom_site_fract_x
  _atom_site_fract_y
  _atom_site_fract_z
  _atom_site_occupancy
  Ba  Ba1       1.0  0.2500000082777777  0.24999997275691255  0.2500000208953603  1.0000
  Ba  Ba2       1.0  0.7500000129247291  0.7500000361228245  0.7500000083197617  1.0000
  Hg  Hg1       1.0  2.2787235423740854e-08  7.17360531319347e-08  0.9999999694732812  1.0000
  Cl  Cl1       1.0  0.25915621318682497  0.25915622351514345  0.7408438124337788  1.0000
  Cl  Cl2       1.0  0.7408437124878022  0.7408436999645296  0.2591562807483495  1.0000
  Cl  Cl3       1.0  0.74084383633798  0.2591561888560923  0.2591561938600307  1.0000
  Cl  Cl4       1.0  0.2591562155750296  0.7408437858636204  0.740843750616069  1.0000
  Cl  Cl5       1.0  0.2591561898731998  0.7408438172641856  0.2591561914348286  1.0000
  Cl  Cl6       1.0  0.7408437827266889  0.2591562069875629  0.7408437707209674  1.0000
