data_image0
_chemical_formula_structural       Ba2HgI6
_chemical_formula_sum              "Ba2 Hg1 I6"
_cell_length_a       8.095256147853686
_cell_length_b       8.095255736727017
_cell_length_c       8.095255963520213
_cell_angle_alpha    60.00000256376277
_cell_angle_beta     59.99999858535058
_cell_angle_gamma    60.00000112883175

_space_group_name_H-M_alt    "P 1"
_space_group_IT_number       1

loop_
  _space_group_symop_operation_xyz
  'x, y, z'

loop_
  _atom_site_type_symbol
  _atom_site_label
  _atom_site_symmetry_multiplicity
  _atom_site_fract_x
  _atom_site_fract_y
  _atom_site_fract_z
  _atom_site_occupancy
  Ba  Ba1       1.0  0.2499999822344639  0.2500000682620351  0.2500000400331074  1.0000
  Ba  Ba2       1.0  0.7500000663103502  0.7499998416860626  0.7499999676111638  1.0000
  Hg  Hg1       1.0  0.9999999904478848  0.9999999773062473  3.770019560343501e-09  1.0000
  I   I1        1.0  0.2604400813552707  0.26044012891945134  0.7395598995016484  1.0000
  I   I2        1.0  0.7395599509207028  0.7395599111394919  0.26044008457449136  1.0000
  I   I3        1.0  0.7395598905666113  0.260440072563211  0.2604400731126064  1.0000
  I   I4        1.0  0.2604400841493922  0.7395599690086482  0.7395599303400217  1.0000
  I   I5        1.0  0.2604400589772459  0.7395598961990479  0.26044008275465225  1.0000
  I   I6        1.0  0.7395598921674565  0.2604401347823926  0.7395599229553392  1.0000
