data_image0
_chemical_formula_structural       Ba2InI6
_chemical_formula_sum              "Ba2 In1 I6"
_cell_length_a       8.120375583626386
_cell_length_b       8.120375680114652
_cell_length_c       8.120375519639817
_cell_angle_alpha    59.99999968040876
_cell_angle_beta     60.0000002910432
_cell_angle_gamma    59.999999192875414

_space_group_name_H-M_alt    "P 1"
_space_group_IT_number       1

loop_
  _space_group_symop_operation_xyz
  'x, y, z'

loop_
  _atom_site_type_symbol
  _atom_site_label
  _atom_site_symmetry_multiplicity
  _atom_site_fract_x
  _atom_site_fract_y
  _atom_site_fract_z
  _atom_site_occupancy
  Ba  Ba1       1.0  0.2500000013122053  0.24999985692081078  0.24999993243093804  1.0000
  Ba  Ba2       1.0  0.7500000093852001  0.75000013031825  0.7500000455542406  1.0000
  In  In1       1.0  0.9999999918994121  0.9999999773764499  0.9999999636403232  1.0000
  I   I1        1.0  0.2559263303150329  0.2559263317389222  0.7440736782768301  1.0000
  I   I2        1.0  0.7440736876351846  0.7440736977307663  0.25592629220721014  1.0000
  I   I3        1.0  0.7440736604144511  0.25592635063715496  0.2559263554231673  1.0000
  I   I4        1.0  0.2559263101939639  0.7440736758160603  0.7440736759526451  1.0000
  I   I5        1.0  0.25592636052827344  0.7440736480769738  0.25592637511000266  1.0000
  I   I6        1.0  0.7440736489196681  0.2559263301126657  0.7440736831442971  1.0000
