data_image0
_chemical_formula_structural       Ba2InBr6
_chemical_formula_sum              "Ba2 In1 Br6"
_cell_length_a       7.506344890053285
_cell_length_b       7.506344868268449
_cell_length_c       7.506344851371142
_cell_angle_alpha    59.99999941141591
_cell_angle_beta     60.00000005440922
_cell_angle_gamma    59.99999907685393

_space_group_name_H-M_alt    "P 1"
_space_group_IT_number       1

loop_
  _space_group_symop_operation_xyz
  'x, y, z'

loop_
  _atom_site_type_symbol
  _atom_site_label
  _atom_site_symmetry_multiplicity
  _atom_site_fract_x
  _atom_site_fract_y
  _atom_site_fract_z
  _atom_site_occupancy
  Ba  Ba1       1.0  0.24999999646428428  0.2500000493255921  0.25000005747238946  1.0000
  Ba  Ba2       1.0  0.7499999645348916  0.749999945656784  0.749999975602075  1.0000
  In  In1       1.0  0.9999999579833396  5.221161207745964e-08  0.9999999615973661  1.0000
  Br  Br1       1.0  0.25509654818286587  0.25509658431827714  0.7449034107494257  1.0000
  Br  Br2       1.0  0.7449034335286892  0.7449034269802276  0.2550965838276901  1.0000
  Br  Br3       1.0  0.7449034964924083  0.25509650119546645  0.25509648256338474  1.0000
  Br  Br4       1.0  0.25509654684443395  0.7449035052081991  0.7449034823163008  1.0000
  Br  Br5       1.0  0.25509656640088607  0.744903420567922  0.2550965338575466  1.0000
  Br  Br6       1.0  0.7449034875654555  0.2550965124131645  0.744903517039138  1.0000
