data_image0
_chemical_formula_structural       Ba2InCl6
_chemical_formula_sum              "Ba2 In1 Cl6"
_cell_length_a       7.147235478519483
_cell_length_b       7.147235516643425
_cell_length_c       7.147235582545382
_cell_angle_alpha    60.000000256797456
_cell_angle_beta     60.00000062312592
_cell_angle_gamma    59.99999858550689

_space_group_name_H-M_alt    "P 1"
_space_group_IT_number       1

loop_
  _space_group_symop_operation_xyz
  'x, y, z'

loop_
  _atom_site_type_symbol
  _atom_site_label
  _atom_site_symmetry_multiplicity
  _atom_site_fract_x
  _atom_site_fract_y
  _atom_site_fract_z
  _atom_site_occupancy
  Ba  Ba1       1.0  0.2500000507169124  0.2499999935901233  0.24999989966662226  1.0000
  Ba  Ba2       1.0  0.7499999504791253  0.749999994479114  0.7500001147840398  1.0000
  In  In1       1.0  0.9999999365663353  7.882525386133852e-08  1.2802101327780007e-07  1.0000
  Cl  Cl1       1.0  0.2518657302004401  0.25186566670811916  0.7481343071598301  1.0000
  Cl  Cl2       1.0  0.7481343330404189  0.7481343436378184  0.2518656287523706  1.0000
  Cl  Cl3       1.0  0.7481342901330383  0.25186568896111183  0.2518656905774228  1.0000
  Cl  Cl4       1.0  0.2518657484512127  0.7481342305644267  0.7481342107298857  1.0000
  Cl  Cl5       1.0  0.2518656782244597  0.7481343374315046  0.2518656968445038  1.0000
  Cl  Cl6       1.0  0.7481342822878105  0.25186566606006533  0.7481343204428789  1.0000
