data_image0
_chemical_formula_structural       Ba2MnF6
_chemical_formula_sum              "Ba2 Mn1 F6"
_cell_length_a       5.920872286486178
_cell_length_b       5.920872029445451
_cell_length_c       5.920872131706435
_cell_angle_alpha    59.999999617958636
_cell_angle_beta     60.00000088658464
_cell_angle_gamma    60.00000074046642

_space_group_name_H-M_alt    "P 1"
_space_group_IT_number       1

loop_
  _space_group_symop_operation_xyz
  'x, y, z'

loop_
  _atom_site_type_symbol
  _atom_site_label
  _atom_site_symmetry_multiplicity
  _atom_site_fract_x
  _atom_site_fract_y
  _atom_site_fract_z
  _atom_site_occupancy
  Ba  Ba1       1.0  0.2499999956337944  0.24999999582338728  0.24999999523702252  1.0000
  Ba  Ba2       1.0  0.7500000412709495  0.7499999998812896  0.7500000570350235  1.0000
  Mn  Mn1       1.0  1.4891957927370101e-08  3.723338016280974e-08  0.999999946914285  1.0000
  F   F1        1.0  0.24743663304048685  0.2474366192602426  0.7525633621336446  1.0000
  F   F2        1.0  0.7525633403350931  0.7525633330054896  0.2474366439749737  1.0000
  F   F3        1.0  0.7525633219121188  0.24743667077752363  0.24743662690744098  1.0000
  F   F4        1.0  0.24743663867713542  0.7525633725031373  0.7525633383979357  1.0000
  F   F5        1.0  0.24743665579617793  0.7525633383645693  0.2474366268111382  1.0000
  F   F6        1.0  0.7525633481914227  0.24743664492898024  0.7525634025236531  1.0000
