data_image0
_chemical_formula_structural       Ba2MgI6
_chemical_formula_sum              "Ba2 Mg1 I6"
_cell_length_a       7.99672310057987
_cell_length_b       7.996723202359536
_cell_length_c       7.996722869750315
_cell_angle_alpha    60.00000044440619
_cell_angle_beta     60.00000270419329
_cell_angle_gamma    59.99999730842024

_space_group_name_H-M_alt    "P 1"
_space_group_IT_number       1

loop_
  _space_group_symop_operation_xyz
  'x, y, z'

loop_
  _atom_site_type_symbol
  _atom_site_label
  _atom_site_symmetry_multiplicity
  _atom_site_fract_x
  _atom_site_fract_y
  _atom_site_fract_z
  _atom_site_occupancy
  Ba  Ba1       1.0  0.2500000964744417  0.24999980951178846  0.24999997791376985  1.0000
  Ba  Ba2       1.0  0.7499999088887874  0.750000175935891  0.7499999816530736  1.0000
  Mg  Mg1       1.0  1.4614849960260702e-08  0.9999999908106519  0.9999998159629714  1.0000
  I   I1        1.0  0.2541044524246961  0.25410445699630363  0.7458955168790118  1.0000
  I   I2        1.0  0.7458955414593585  0.7458955498931941  0.25410445021163214  1.0000
  I   I3        1.0  0.745895458904618  0.25410449182888467  0.2541045425431563  1.0000
  I   I4        1.0  0.25410437911599804  0.7458956620902257  0.7458955952825285  1.0000
  I   I5        1.0  0.25410451662631184  0.7458955051258778  0.254104497070004  1.0000
  I   I6        1.0  0.7458956340546364  0.25410435626556005  0.7458956194347466  1.0000
