data_image0
_chemical_formula_structural       Ba2MnCl6
_chemical_formula_sum              "Ba2 Mn1 Cl6"
_cell_length_a       6.9867084813978755
_cell_length_b       6.986708430045507
_cell_length_c       6.986708351900641
_cell_angle_alpha    60.0000015347719
_cell_angle_beta     59.999999953078785
_cell_angle_gamma    59.99999904086182

_space_group_name_H-M_alt    "P 1"
_space_group_IT_number       1

loop_
  _space_group_symop_operation_xyz
  'x, y, z'

loop_
  _atom_site_type_symbol
  _atom_site_label
  _atom_site_symmetry_multiplicity
  _atom_site_fract_x
  _atom_site_fract_y
  _atom_site_fract_z
  _atom_site_occupancy
  Ba  Ba1       1.0  0.2500000054920651  0.24999996629185994  0.2500000385419219  1.0000
  Ba  Ba2       1.0  0.7500000155395098  0.7500000058063847  0.7499999839078025  1.0000
  Mn  Mn1       1.0  1.2571510995331176e-08  0.9999999474110778  0.9999999541694032  1.0000
  Cl  Cl1       1.0  0.24693315106441724  0.24693312680902915  0.7530668388325463  1.0000
  Cl  Cl2       1.0  0.7530668917187519  0.7530668891133149  0.24693310502807808  1.0000
  Cl  Cl3       1.0  0.753066814591674  0.24693319080288406  0.24693317614675708  1.0000
  Cl  Cl4       1.0  0.2469330708316451  0.7530669302973064  0.7530668768196428  1.0000
  Cl  Cl5       1.0  0.24693314397463062  0.753066839962499  0.24693316379855954  1.0000
  Cl  Cl6       1.0  0.753066897975059  0.24693310408832037  0.7530668564906632  1.0000
