data_image0
_chemical_formula_structural       Ba2MnI6
_chemical_formula_sum              "Ba2 Mn1 I6"
_cell_length_a       7.950706848756212
_cell_length_b       7.950707027102461
_cell_length_c       7.950707101479618
_cell_angle_alpha    59.99999658945292
_cell_angle_beta     59.99999860886549
_cell_angle_gamma    60.00000015273864

_space_group_name_H-M_alt    "P 1"
_space_group_IT_number       1

loop_
  _space_group_symop_operation_xyz
  'x, y, z'

loop_
  _atom_site_type_symbol
  _atom_site_label
  _atom_site_symmetry_multiplicity
  _atom_site_fract_x
  _atom_site_fract_y
  _atom_site_fract_z
  _atom_site_occupancy
  Ba  Ba1       1.0  0.25000000099580333  0.250000127946981  0.24999996289394075  1.0000
  Ba  Ba2       1.0  0.7499999809611345  0.7499999140120437  0.7500000050611948  1.0000
  Mn  Mn1       1.0  0.9999999631784164  1.5404204669612519e-09  6.04040736759401e-08  1.0000
  I   I1        1.0  0.2500731623730054  0.2500731963645797  0.7499268441283415  1.0000
  I   I2        1.0  0.7499268618196676  0.7499267885988066  0.2500731915787356  1.0000
  I   I3        1.0  0.7499268254567663  0.2500731591145366  0.25007317755696307  1.0000
  I   I4        1.0  0.250073230541076  0.7499267827170188  0.7499267921217091  1.0000
  I   I5        1.0  0.2500732003783586  0.7499268042689738  0.25007315205621267  1.0000
  I   I6        1.0  0.7499267774859003  0.2500732238262477  0.7499268122996666  1.0000
