data_image0
_chemical_formula_structural       Ba2MgCl6
_chemical_formula_sum              "Ba2 Mg1 Cl6"
_cell_length_a       6.965466020223963
_cell_length_b       6.9654658268866845
_cell_length_c       6.965465884958589
_cell_angle_alpha    59.999999692359594
_cell_angle_beta     59.99999943107531
_cell_angle_gamma    59.999998894290634

_space_group_name_H-M_alt    "P 1"
_space_group_IT_number       1

loop_
  _space_group_symop_operation_xyz
  'x, y, z'

loop_
  _atom_site_type_symbol
  _atom_site_label
  _atom_site_symmetry_multiplicity
  _atom_site_fract_x
  _atom_site_fract_y
  _atom_site_fract_z
  _atom_site_occupancy
  Ba  Ba1       1.0  0.25000000976202  0.2499999944666326  0.24999995641826522  1.0000
  Ba  Ba2       1.0  0.7499999825673628  0.7499999992246895  0.750000038316743  1.0000
  Mg  Mg1       1.0  0.9999999245449871  1.3187325633139723e-07  0.9999998842159759  1.0000
  Cl  Cl1       1.0  0.2487783923004371  0.24877839482403208  0.751221591903322  1.0000
  Cl  Cl2       1.0  0.7512215933146374  0.7512215742509486  0.24877841993266508  1.0000
  Cl  Cl3       1.0  0.7512215872402783  0.24877843545576853  0.24877838019411583  1.0000
  Cl  Cl4       1.0  0.24877842185047522  0.7512215775769645  0.751221632380855  1.0000
  Cl  Cl5       1.0  0.2487784685099537  0.7512215156760249  0.2487784283339416  1.0000
  Cl  Cl6       1.0  0.7512216286111549  0.2487783725166919  0.7512216816068374  1.0000
