data_image0
_chemical_formula_structural       Ba2MgBr6
_chemical_formula_sum              "Ba2 Mg1 Br6"
_cell_length_a       7.362941786835105
_cell_length_b       7.3629419383874115
_cell_length_c       7.362941717344192
_cell_angle_alpha    60.000000966709045
_cell_angle_beta     60.000000863880196
_cell_angle_gamma    60.00000013429444

_space_group_name_H-M_alt    "P 1"
_space_group_IT_number       1

loop_
  _space_group_symop_operation_xyz
  'x, y, z'

loop_
  _atom_site_type_symbol
  _atom_site_label
  _atom_site_symmetry_multiplicity
  _atom_site_fract_x
  _atom_site_fract_y
  _atom_site_fract_z
  _atom_site_occupancy
  Ba  Ba1       1.0  0.24999999302530676  0.25000003245272495  0.24999999929903907  1.0000
  Ba  Ba2       1.0  0.7499999910376915  0.7499999909011745  0.7500000397121205  1.0000
  Mg  Mg1       1.0  0.9999999752557243  3.659459378562739e-08  8.642923211272228e-08  1.0000
  Br  Br1       1.0  0.25236739753111515  0.2523674469567952  0.7476325940583062  1.0000
  Br  Br2       1.0  0.747632550494552  0.7476325198418237  0.25236743828119923  1.0000
  Br  Br3       1.0  0.7476326501243279  0.25236738963902977  0.25236736875747984  1.0000
  Br  Br4       1.0  0.25236746296545914  0.7476325289212594  0.7476325413359491  1.0000
  Br  Br5       1.0  0.2523674050709405  0.7476326049543938  0.25236738553730786  1.0000
  Br  Br6       1.0  0.7476325762985482  0.25236745000392785  0.7476325480221571  1.0000
