data_image0
_chemical_formula_structural       Ba2MgF6
_chemical_formula_sum              "Ba2 Mg1 F6"
_cell_length_a       5.8155501899528295
_cell_length_b       5.815550198535021
_cell_length_c       5.8155502106061645
_cell_angle_alpha    60.00000002217023
_cell_angle_beta     60.000001515393265
_cell_angle_gamma    60.000000389644875

_space_group_name_H-M_alt    "P 1"
_space_group_IT_number       1

loop_
  _space_group_symop_operation_xyz
  'x, y, z'

loop_
  _atom_site_type_symbol
  _atom_site_label
  _atom_site_symmetry_multiplicity
  _atom_site_fract_x
  _atom_site_fract_y
  _atom_site_fract_z
  _atom_site_occupancy
  Ba  Ba1       1.0  0.24999999487178629  0.25000003519645403  0.2500000010669475  1.0000
  Ba  Ba2       1.0  0.7499999683112633  0.7500000234560329  0.7500000111508885  1.0000
  Mg  Mg1       1.0  0.9999999738266562  1.895384507623781e-08  3.284172093090281e-08  1.0000
  F   F1        1.0  0.2387399307752112  0.2387398985274378  0.761260091793541  1.0000
  F   F2        1.0  0.76126005908362  0.7612600800977026  0.23873993334385568  1.0000
  F   F3        1.0  0.7612600870267692  0.2387398941542336  0.2387399050346452  1.0000
  F   F4        1.0  0.2387399395146548  0.7612600697290274  0.761260060985618  1.0000
  F   F5        1.0  0.2387399512812034  0.7612600682030827  0.2387399159036552  1.0000
  F   F6        1.0  0.7612600585534667  0.23873990410410934  0.7612600783314077  1.0000
