data_image0
_chemical_formula_structural       Ba2MnBr6
_chemical_formula_sum              "Ba2 Mn1 Br6"
_cell_length_a       7.342675756155315
_cell_length_b       7.342675698025703
_cell_length_c       7.342675693371
_cell_angle_alpha    60.00000045190749
_cell_angle_beta     60.000001207798995
_cell_angle_gamma    59.99999972877873

_space_group_name_H-M_alt    "P 1"
_space_group_IT_number       1

loop_
  _space_group_symop_operation_xyz
  'x, y, z'

loop_
  _atom_site_type_symbol
  _atom_site_label
  _atom_site_symmetry_multiplicity
  _atom_site_fract_x
  _atom_site_fract_y
  _atom_site_fract_z
  _atom_site_occupancy
  Ba  Ba1       1.0  0.2499999816356529  0.24999998553002362  0.24999998674470214  1.0000
  Ba  Ba2       1.0  0.7500000049187576  0.7499999982896133  0.7500000319495586  1.0000
  Mn  Mn1       1.0  1.0121800575726602e-07  0.9999999699763287  0.99999992082199  1.0000
  Br  Br1       1.0  0.24971767166993739  0.24971765697206758  0.7502823500358907  1.0000
  Br  Br2       1.0  0.7502823191252701  0.7502823518672949  0.2497176621995168  1.0000
  Br  Br3       1.0  0.7502822968476102  0.24971767508743317  0.24971767886841229  1.0000
  Br  Br4       1.0  0.2497176385254363  0.75028235376771  0.750282372860607  1.0000
  Br  Br5       1.0  0.24971768867190697  0.7502823497359228  0.24971764921077658  1.0000
  Br  Br6       1.0  0.7502822937043654  0.24971766077142143  0.7502823500572913  1.0000
