data_image0
_chemical_formula_structural       Ba2NiCl6
_chemical_formula_sum              "Ba2 Ni1 Cl6"
_cell_length_a       6.868658824387453
_cell_length_b       6.86865888792602
_cell_length_c       6.868658781080162
_cell_angle_alpha    59.99999964131268
_cell_angle_beta     59.99999959209696
_cell_angle_gamma    59.99999952940473

_space_group_name_H-M_alt    "P 1"
_space_group_IT_number       1

loop_
  _space_group_symop_operation_xyz
  'x, y, z'

loop_
  _atom_site_type_symbol
  _atom_site_label
  _atom_site_symmetry_multiplicity
  _atom_site_fract_x
  _atom_site_fract_y
  _atom_site_fract_z
  _atom_site_occupancy
  Ba  Ba1       1.0  0.25000002144274164  0.24999995252654597  0.25000005816637505  1.0000
  Ba  Ba2       1.0  0.7499999944147339  0.7500000269733527  0.7499999413170858  1.0000
  Ni  Ni1       1.0  5.9229435910200426e-08  8.91545854602099e-09  0.9999999368097863  1.0000
  Cl  Cl1       1.0  0.2439147629434808  0.2439147453091216  0.7560852662644982  1.0000
  Cl  Cl2       1.0  0.756085230957523  0.7560852395400524  0.2439147313313429  1.0000
  Cl  Cl3       1.0  0.7560852133775037  0.24391477894177396  0.24391475744879065  1.0000
  Cl  Cl4       1.0  0.2439147433175195  0.7560852469185091  0.7560852950241298  1.0000
  Cl  Cl5       1.0  0.24391474571662117  0.7560852240492681  0.24391473715787187  1.0000
  Cl  Cl6       1.0  0.7560852281974594  0.24391478041391473  0.7560852693597561  1.0000
