data_image0
_chemical_formula_structural       Ba2NbI6
_chemical_formula_sum              "Ba2 Nb1 I6"
_cell_length_a       8.12704171416027
_cell_length_b       8.127041903811017
_cell_length_c       8.127042138881546
_cell_angle_alpha    59.99999609720632
_cell_angle_beta     60.00000121754269
_cell_angle_gamma    60.00000236348732

_space_group_name_H-M_alt    "P 1"
_space_group_IT_number       1

loop_
  _space_group_symop_operation_xyz
  'x, y, z'

loop_
  _atom_site_type_symbol
  _atom_site_label
  _atom_site_symmetry_multiplicity
  _atom_site_fract_x
  _atom_site_fract_y
  _atom_site_fract_z
  _atom_site_occupancy
  Ba  Ba1       1.0  0.2499998695692393  0.25000007206360125  0.2500000612449478  1.0000
  Ba  Ba2       1.0  0.7500000992945612  0.7499999464378979  0.7499999515023545  1.0000
  Nb  Nb1       1.0  3.613841424932381e-08  0.999999942734015  3.148160688546174e-08  1.0000
  I   I1        1.0  0.2505876555210178  0.2505876726786938  0.7494123298860701  1.0000
  I   I2        1.0  0.7494123485331425  0.7494123382878097  0.25058764934619193  1.0000
  I   I3        1.0  0.7494123034673649  0.2505877048546642  0.250587687649903  1.0000
  I   I4        1.0  0.2505876924780657  0.7494123091258376  0.749412310125704  1.0000
  I   I5        1.0  0.25058768464487213  0.749412322296335  0.2505876612053811  1.0000
  I   I6        1.0  0.7494123170699957  0.2505876871631688  0.7494123187195668  1.0000
