data_image0
_chemical_formula_structural       Ba2NiF6
_chemical_formula_sum              "Ba2 Ni1 F6"
_cell_length_a       5.809306978480766
_cell_length_b       5.809307009522443
_cell_length_c       5.8093070326834155
_cell_angle_alpha    59.99999991185451
_cell_angle_beta     59.99999872750875
_cell_angle_gamma    59.99999951833119

_space_group_name_H-M_alt    "P 1"
_space_group_IT_number       1

loop_
  _space_group_symop_operation_xyz
  'x, y, z'

loop_
  _atom_site_type_symbol
  _atom_site_label
  _atom_site_symmetry_multiplicity
  _atom_site_fract_x
  _atom_site_fract_y
  _atom_site_fract_z
  _atom_site_occupancy
  Ba  Ba1       1.0  0.250000029345825  0.24999998899164902  0.25000001382182396  1.0000
  Ba  Ba2       1.0  0.7499999678538586  0.7499999458924865  0.7500000535717372  1.0000
  Ni  Ni1       1.0  5.5393027442534286e-08  4.8489659025244116e-08  0.999999815512727  1.0000
  F   F1        1.0  0.24133705057064447  0.24133704140966192  0.7586629501483659  1.0000
  F   F2        1.0  0.7586629172548536  0.7586629398558873  0.24133707087131592  1.0000
  F   F3        1.0  0.7586629155238307  0.2413370890963834  0.24133706838180302  1.0000
  F   F4        1.0  0.24133701178338735  0.7586630017979622  0.758662981773522  1.0000
  F   F5        1.0  0.24133707076836008  0.758662917435682  0.24133707880786034  1.0000
  F   F6        1.0  0.758662975179267  0.24133703220617592  0.7586629706038731  1.0000
