data_image0
_chemical_formula_structural       Ba2NbBr6
_chemical_formula_sum              "Ba2 Nb1 Br6"
_cell_length_a       7.457713594858705
_cell_length_b       7.4577136304145775
_cell_length_c       7.4577131445765215
_cell_angle_alpha    60.00000177062813
_cell_angle_beta     60.00000023780439
_cell_angle_gamma    59.99999848128019

_space_group_name_H-M_alt    "P 1"
_space_group_IT_number       1

loop_
  _space_group_symop_operation_xyz
  'x, y, z'

loop_
  _atom_site_type_symbol
  _atom_site_label
  _atom_site_symmetry_multiplicity
  _atom_site_fract_x
  _atom_site_fract_y
  _atom_site_fract_z
  _atom_site_occupancy
  Ba  Ba1       1.0  0.24999989629175626  0.2500001489120351  0.24999999717680665  1.0000
  Ba  Ba2       1.0  0.7500000945005906  0.7499998801589937  0.7499999942344809  1.0000
  Nb  Nb1       1.0  0.9999999851874991  1.0017740036787228e-07  0.9999998151828261  1.0000
  Br  Br1       1.0  0.2531269542021039  0.2531269674558536  0.7468730130018445  1.0000
  Br  Br2       1.0  0.7468729888120719  0.7468729959250779  0.2531270177119609  1.0000
  Br  Br3       1.0  0.7468729915911725  0.25312703652593105  0.2531269756186163  1.0000
  Br  Br4       1.0  0.2531269469792021  0.7468730516661879  0.7468730364791982  1.0000
  Br  Br5       1.0  0.2531270179201342  0.7468729487152197  0.25312703696767314  1.0000
  Br  Br6       1.0  0.7468731196229181  0.2531268816432569  0.7468731239001539  1.0000
