data_image0
_chemical_formula_structural       Ba2NbF6
_chemical_formula_sum              "Ba2 Nb1 F6"
_cell_length_a       6.081589935321953
_cell_length_b       6.081590000119804
_cell_length_c       6.081589656129979
_cell_angle_alpha    60.000000180479084
_cell_angle_beta     59.999998140923
_cell_angle_gamma    59.999999307163584

_space_group_name_H-M_alt    "P 1"
_space_group_IT_number       1

loop_
  _space_group_symop_operation_xyz
  'x, y, z'

loop_
  _atom_site_type_symbol
  _atom_site_label
  _atom_site_symmetry_multiplicity
  _atom_site_fract_x
  _atom_site_fract_y
  _atom_site_fract_z
  _atom_site_occupancy
  Ba  Ba1       1.0  0.24999998976379867  0.24999998600118556  0.24999998970533893  1.0000
  Ba  Ba2       1.0  0.7500000002066567  0.7499999962668267  0.7500000150977897  1.0000
  Nb  Nb1       1.0  0.9999999929416229  3.826327093477117e-08  0.9999999646658696  1.0000
  F   F1        1.0  0.2502774685340998  0.2502774700517642  0.7497225464215052  1.0000
  F   F2        1.0  0.7497225530426644  0.7497225142301043  0.2502774497930747  1.0000
  F   F3        1.0  0.7497225651618119  0.25027746193167577  0.25027741590192365  1.0000
  F   F4        1.0  0.25027742076117  0.7497225666550328  0.7497225694099001  1.0000
  F   F5        1.0  0.25027745715880684  0.7497225255474012  0.250277474061139  1.0000
  F   F6        1.0  0.7497225652044168  0.2502774506790418  0.7497225389423794  1.0000
