data_image0
_chemical_formula_structural       Ba2NiBr6
_chemical_formula_sum              "Ba2 Ni1 Br6"
_cell_length_a       7.206636353495873
_cell_length_b       7.206636166493622
_cell_length_c       7.206636331449167
_cell_angle_alpha    60.000001531134274
_cell_angle_beta     59.99999907805935
_cell_angle_gamma    59.999999470045985

_space_group_name_H-M_alt    "P 1"
_space_group_IT_number       1

loop_
  _space_group_symop_operation_xyz
  'x, y, z'

loop_
  _atom_site_type_symbol
  _atom_site_label
  _atom_site_symmetry_multiplicity
  _atom_site_fract_x
  _atom_site_fract_y
  _atom_site_fract_z
  _atom_site_occupancy
  Ba  Ba1       1.0  0.2499999655473406  0.24999998637344195  0.25000000065866035  1.0000
  Ba  Ba2       1.0  0.7500000120695846  0.7500000118038402  0.7500000122779165  1.0000
  Ni  Ni1       1.0  9.660572934001159e-08  3.3989374843440736e-09  1.6602941637658414e-08  1.0000
  Br  Br1       1.0  0.24651982072328174  0.24651980155750614  0.7534801937908411  1.0000
  Br  Br2       1.0  0.7534800755192841  0.7534800946516886  0.24651992608066706  1.0000
  Br  Br3       1.0  0.7534802220861065  0.2465198187971953  0.24651983310767916  1.0000
  Br  Br4       1.0  0.24651983599994  0.7534802167683847  0.7534801056364793  1.0000
  Br  Br5       1.0  0.24651979563784376  0.7534802237504932  0.24651982185223928  1.0000
  Br  Br6       1.0  0.7534801783524057  0.24651985260232118  0.7534800844294149  1.0000
