data_image0
_chemical_formula_structural       Ba2NbCl6
_chemical_formula_sum              "Ba2 Nb1 Cl6"
_cell_length_a       7.09818115948341
_cell_length_b       7.098181215894155
_cell_length_c       7.098181214027588
_cell_angle_alpha    59.99999991584985
_cell_angle_beta     59.999999882181754
_cell_angle_gamma    59.99999886001836

_space_group_name_H-M_alt    "P 1"
_space_group_IT_number       1

loop_
  _space_group_symop_operation_xyz
  'x, y, z'

loop_
  _atom_site_type_symbol
  _atom_site_label
  _atom_site_symmetry_multiplicity
  _atom_site_fract_x
  _atom_site_fract_y
  _atom_site_fract_z
  _atom_site_occupancy
  Ba  Ba1       1.0  0.24999998409057958  0.24999998249409686  0.24999998058149675  1.0000
  Ba  Ba2       1.0  0.749999999890253  0.7500000095979419  0.7500000193056976  1.0000
  Nb  Nb1       1.0  0.9999999350284581  0.9999999948236966  0.9999999801302704  1.0000
  Cl  Cl1       1.0  0.2521532906408113  0.2521532863305371  0.7478466969417432  1.0000
  Cl  Cl2       1.0  0.7478467171492784  0.7478467368193273  0.2521532825559677  1.0000
  Cl  Cl3       1.0  0.747846767467479  0.2521532281583268  0.25215321626174375  1.0000
  Cl  Cl4       1.0  0.25215322308519317  0.74784681742219  0.7478467958596395  1.0000
  Cl  Cl5       1.0  0.2521532873646419  0.7478467250258996  0.2521532450585702  1.0000
  Cl  Cl6       1.0  0.7478467874523244  0.25215322393026823  0.7478467845133335  1.0000
