data_image0
_chemical_formula_structural       Ba2PdI6
_chemical_formula_sum              "Ba2 Pd1 I6"
_cell_length_a       7.872886250740221
_cell_length_b       7.872886133680307
_cell_length_c       7.872886213722023
_cell_angle_alpha    60.000000308274174
_cell_angle_beta     60.000000652948636
_cell_angle_gamma    60.000000750102295

_space_group_name_H-M_alt    "P 1"
_space_group_IT_number       1

loop_
  _space_group_symop_operation_xyz
  'x, y, z'

loop_
  _atom_site_type_symbol
  _atom_site_label
  _atom_site_symmetry_multiplicity
  _atom_site_fract_x
  _atom_site_fract_y
  _atom_site_fract_z
  _atom_site_occupancy
  Ba  Ba1       1.0  0.25000000939333367  0.24999998794290668  0.25000000261806504  1.0000
  Ba  Ba2       1.0  0.7500000330680617  0.7500000151651423  0.7499999810121363  1.0000
  Pd  Pd1       1.0  0.999999952517159  5.444771981424132e-08  0.9999999495208189  1.0000
  I   I1        1.0  0.24725186202010901  0.24725195351174836  0.7527480748425145  1.0000
  I   I2        1.0  0.7527481060549193  0.7527480791536337  0.24725190960910615  1.0000
  I   I3        1.0  0.7527480987623322  0.24725190189299562  0.24725187808852028  1.0000
  I   I4        1.0  0.24725186975754124  0.7527481074376491  0.7527480949447665  1.0000
  I   I5        1.0  0.24725192839181406  0.7527480471349896  0.24725196107507308  1.0000
  I   I6        1.0  0.7527481350937416  0.24725185330021582  0.7527481535624062  1.0000
