data_image0
_chemical_formula_structural       Ba2PtBr6
_chemical_formula_sum              "Ba2 Pt1 Br6"
_cell_length_a       7.318543562905589
_cell_length_b       7.318543481721417
_cell_length_c       7.318543601549808
_cell_angle_alpha    59.999998998926976
_cell_angle_beta     59.999998967948386
_cell_angle_gamma    59.99999908732929

_space_group_name_H-M_alt    "P 1"
_space_group_IT_number       1

loop_
  _space_group_symop_operation_xyz
  'x, y, z'

loop_
  _atom_site_type_symbol
  _atom_site_label
  _atom_site_symmetry_multiplicity
  _atom_site_fract_x
  _atom_site_fract_y
  _atom_site_fract_z
  _atom_site_occupancy
  Ba  Ba1       1.0  0.2499999448525292  0.24999999297343198  0.24999999569974277  1.0000
  Ba  Ba2       1.0  0.750000060720631  0.7500000056960033  0.7499999754067858  1.0000
  Pt  Pt1       1.0  8.793867194632319e-09  2.008178082911878e-07  0.999999955315413  1.0000
  Br  Br1       1.0  0.24471197238943004  0.24471198717510018  0.7552880667607264  1.0000
  Br  Br2       1.0  0.7552879326547292  0.7552878776157961  0.24471212539537132  1.0000
  Br  Br3       1.0  0.7552881021292054  0.24471192710442957  0.24471197791817798  1.0000
  Br  Br4       1.0  0.24471200996972034  0.7552879460538754  0.7552879439261735  1.0000
  Br  Br5       1.0  0.24471196331637932  0.7552880424474601  0.2447120034860868  1.0000
  Br  Br6       1.0  0.7552880064929712  0.24471201144687246  0.7552879524243297  1.0000
