data_image0
_chemical_formula_structural       Ba2PdBr6
_chemical_formula_sum              "Ba2 Pd1 Br6"
_cell_length_a       7.283266482646192
_cell_length_b       7.2832663044563395
_cell_length_c       7.2832664522251145
_cell_angle_alpha    59.99999943776481
_cell_angle_beta     59.99999943437963
_cell_angle_gamma    60.000000430985864

_space_group_name_H-M_alt    "P 1"
_space_group_IT_number       1

loop_
  _space_group_symop_operation_xyz
  'x, y, z'

loop_
  _atom_site_type_symbol
  _atom_site_label
  _atom_site_symmetry_multiplicity
  _atom_site_fract_x
  _atom_site_fract_y
  _atom_site_fract_z
  _atom_site_occupancy
  Ba  Ba1       1.0  0.24999998068475018  0.24999998978515697  0.2499999853416371  1.0000
  Ba  Ba2       1.0  0.7500000195307779  0.7500000080319823  0.750000003670186  1.0000
  Pd  Pd1       1.0  0.9999998893395826  9.41688921886636e-08  0.9999999958886704  1.0000
  Br  Br1       1.0  0.24656378254986938  0.24656385114966067  0.7534361748711788  1.0000
  Br  Br2       1.0  0.7534361822259831  0.7534361483490657  0.24656383513871985  1.0000
  Br  Br3       1.0  0.7534361666319185  0.24656384703185624  0.24656381147105236  1.0000
  Br  Br4       1.0  0.24656386204142242  0.7534361272430599  0.7534361215355736  1.0000
  Br  Br5       1.0  0.24656387290769877  0.7534361387219463  0.2465638746407701  1.0000
  Br  Br6       1.0  0.7534362469998824  0.24656379015011226  0.7534361988383921  1.0000
