data_image0
_chemical_formula_structural       Ba2PbBr6
_chemical_formula_sum              "Ba2 Pb1 Br6"
_cell_length_a       7.667455436442927
_cell_length_b       7.667455475870748
_cell_length_c       7.667455345668897
_cell_angle_alpha    60.00000038307086
_cell_angle_beta     60.00000026077899
_cell_angle_gamma    59.99999927172339

_space_group_name_H-M_alt    "P 1"
_space_group_IT_number       1

loop_
  _space_group_symop_operation_xyz
  'x, y, z'

loop_
  _atom_site_type_symbol
  _atom_site_label
  _atom_site_symmetry_multiplicity
  _atom_site_fract_x
  _atom_site_fract_y
  _atom_site_fract_z
  _atom_site_occupancy
  Ba  Ba1       1.0  0.25000003865193365  0.2500000160377321  0.24999999517656532  1.0000
  Ba  Ba2       1.0  0.7499999627273138  0.7500000017906583  0.7499999914018252  1.0000
  Pb  Pb1       1.0  0.9999999702302134  7.986645181598737e-09  3.06628877776467e-09  1.0000
  Br  Br1       1.0  0.2659983517855508  0.2659983428453247  0.734001648714593  1.0000
  Br  Br2       1.0  0.7340016735222843  0.7340016574124468  0.2659983399016678  1.0000
  Br  Br3       1.0  0.7340016759526579  0.2659982993058649  0.26599833083482405  1.0000
  Br  Br4       1.0  0.2659983402436411  0.7340016785893012  0.7340016735185076  1.0000
  Br  Br5       1.0  0.2659983071406737  0.7340016713191174  0.26599833689036495  1.0000
  Br  Br6       1.0  0.7340016785706898  0.26599832574399657  0.7340016861635971  1.0000
