data_image0
_chemical_formula_structural       Ba2PbCl6
_chemical_formula_sum              "Ba2 Pb1 Cl6"
_cell_length_a       7.295235040009132
_cell_length_b       7.295235075672771
_cell_length_c       7.295235021233249
_cell_angle_alpha    59.99999851571888
_cell_angle_beta     59.99999892585386
_cell_angle_gamma    59.9999977951992

_space_group_name_H-M_alt    "P 1"
_space_group_IT_number       1

loop_
  _space_group_symop_operation_xyz
  'x, y, z'

loop_
  _atom_site_type_symbol
  _atom_site_label
  _atom_site_symmetry_multiplicity
  _atom_site_fract_x
  _atom_site_fract_y
  _atom_site_fract_z
  _atom_site_occupancy
  Ba  Ba1       1.0  0.2500000885389715  0.2499999609315371  0.24999996423611046  1.0000
  Ba  Ba2       1.0  0.7499999539586611  0.7500000960058416  0.749999998132911  1.0000
  Pb  Pb1       1.0  0.9999999982251572  1.0072970708544034e-08  3.8344426421800894e-08  1.0000
  Cl  Cl1       1.0  0.263519829241872  0.26351981631310495  0.7364801699262943  1.0000
  Cl  Cl2       1.0  0.7364801786752854  0.7364801449310469  0.26351984798427536  1.0000
  Cl  Cl3       1.0  0.7364801484136404  0.2635198075656447  0.26351983481475183  1.0000
  Cl  Cl4       1.0  0.263519856897497  0.7364801519996786  0.7364801783844531  1.0000
  Cl  Cl5       1.0  0.2635197996967168  0.7364801407423325  0.263519800788879  1.0000
  Cl  Cl6       1.0  0.736480147113342  0.26351987086667783  0.7364801704040158  1.0000
