data_image0
_chemical_formula_structural       Ba2PtF6
_chemical_formula_sum              "Ba2 Pt1 F6"
_cell_length_a       6.035127034261385
_cell_length_b       6.035126977635746
_cell_length_c       6.03512679689557
_cell_angle_alpha    59.99999883294899
_cell_angle_beta     59.9999997632052
_cell_angle_gamma    59.99999623469891

_space_group_name_H-M_alt    "P 1"
_space_group_IT_number       1

loop_
  _space_group_symop_operation_xyz
  'x, y, z'

loop_
  _atom_site_type_symbol
  _atom_site_label
  _atom_site_symmetry_multiplicity
  _atom_site_fract_x
  _atom_site_fract_y
  _atom_site_fract_z
  _atom_site_occupancy
  Ba  Ba1       1.0  0.24999999935886413  0.2500000279930029  0.2500000077673724  1.0000
  Ba  Ba2       1.0  0.7500000038762348  0.749999980481618  0.7500000108432505  1.0000
  Pt  Pt1       1.0  2.2614836459923673e-09  0.9999999817357547  0.9999999897747549  1.0000
  F   F1        1.0  0.25057907219317954  0.2505790074097542  0.7494209901676944  1.0000
  F   F2        1.0  0.7494209400679385  0.7494209625070142  0.250579071377268  1.0000
  F   F3        1.0  0.7494210473071968  0.25057895864065044  0.2505789600237915  1.0000
  F   F4        1.0  0.25057899340137724  0.7494210579514122  0.7494210076229502  1.0000
  F   F5        1.0  0.25057890831770463  0.7494210895774674  0.25057892194599823  1.0000
  F   F6        1.0  0.7494210675708094  0.2505789148384341  0.7494210643152627  1.0000
