data_image0
_chemical_formula_structural       Ba2PdF6
_chemical_formula_sum              "Ba2 Pd1 F6"
_cell_length_a       5.969630402794946
_cell_length_b       5.969630386054281
_cell_length_c       5.969630362010801
_cell_angle_alpha    59.99999993285683
_cell_angle_beta     59.999999839262436
_cell_angle_gamma    59.999999436531745

_space_group_name_H-M_alt    "P 1"
_space_group_IT_number       1

loop_
  _space_group_symop_operation_xyz
  'x, y, z'

loop_
  _atom_site_type_symbol
  _atom_site_label
  _atom_site_symmetry_multiplicity
  _atom_site_fract_x
  _atom_site_fract_y
  _atom_site_fract_z
  _atom_site_occupancy
  Ba  Ba1       1.0  0.24999999412553572  0.25000002154692125  0.25000001266296895  1.0000
  Ba  Ba2       1.0  0.7500000023263266  0.7499999989887326  0.7499999754076374  1.0000
  Pd  Pd1       1.0  2.430278134218949e-17  5.428354724681208e-18  0.9999999932994176  1.0000
  F   F1        1.0  0.2532371083001029  0.25323709710074804  0.7467629058899701  1.0000
  F   F2        1.0  0.7467629226371347  0.7467629070218977  0.25323709659649074  1.0000
  F   F3        1.0  0.7467629243196703  0.253237061919395  0.2532370637837262  1.0000
  F   F4        1.0  0.2532370507577825  0.7467629298934954  0.7467629376094473  1.0000
  F   F5        1.0  0.2532370722427024  0.7467629118286824  0.25323707896382014  1.0000
  F   F6        1.0  0.7467629112557918  0.2532370779325818  0.7467629309706649  1.0000
