data_image0
_chemical_formula_structural       Ba2PtCl6
_chemical_formula_sum              "Ba2 Pt1 Cl6"
_cell_length_a       7.040319925668175
_cell_length_b       7.040319842021053
_cell_length_c       7.040319897298333
_cell_angle_alpha    60.00000014244558
_cell_angle_beta     60.00000016243591
_cell_angle_gamma    60.00000015575283

_space_group_name_H-M_alt    "P 1"
_space_group_IT_number       1

loop_
  _space_group_symop_operation_xyz
  'x, y, z'

loop_
  _atom_site_type_symbol
  _atom_site_label
  _atom_site_symmetry_multiplicity
  _atom_site_fract_x
  _atom_site_fract_y
  _atom_site_fract_z
  _atom_site_occupancy
  Ba  Ba1       1.0  0.24999997281879893  0.2500000270930233  0.24999994707604506  1.0000
  Ba  Ba2       1.0  0.7500000148940952  0.7499999838606095  0.7500000490954563  1.0000
  Pt  Pt1       1.0  4.044032541933862e-08  0.9999999721661537  0.9999999340403802  1.0000
  Cl  Cl1       1.0  0.24396269906549153  0.24396267149615325  0.7560373130573654  1.0000
  Cl  Cl2       1.0  0.7560373768161964  0.7560373603328645  0.24396262433087648  1.0000
  Cl  Cl3       1.0  0.756037260124946  0.24396273271787383  0.24396267612738462  1.0000
  Cl  Cl4       1.0  0.24396266274472686  0.7560372956319129  0.7560373892201308  1.0000
  Cl  Cl5       1.0  0.24396271055359778  0.7560372550821438  0.2439626641871592  1.0000
  Cl  Cl6       1.0  0.7560372666733234  0.24396270368302772  0.7560374045128692  1.0000
