data_image0
_chemical_formula_structural       Ba2PdCl6
_chemical_formula_sum              "Ba2 Pd1 Cl6"
_cell_length_a       6.954343967589673
_cell_length_b       6.954344009600561
_cell_length_c       6.954343990293987
_cell_angle_alpha    59.999999321856386
_cell_angle_beta     59.99999939100061
_cell_angle_gamma    59.9999994212814

_space_group_name_H-M_alt    "P 1"
_space_group_IT_number       1

loop_
  _space_group_symop_operation_xyz
  'x, y, z'

loop_
  _atom_site_type_symbol
  _atom_site_label
  _atom_site_symmetry_multiplicity
  _atom_site_fract_x
  _atom_site_fract_y
  _atom_site_fract_z
  _atom_site_occupancy
  Ba  Ba1       1.0  0.24999998189605233  0.24999995600415265  0.25000006673308084  1.0000
  Ba  Ba2       1.0  0.7500000257873614  0.7500000212300799  0.7499999411837631  1.0000
  Pd  Pd1       1.0  0.9999999545302668  9.157834739865349e-08  1.2074070778052355e-07  1.0000
  Cl  Cl1       1.0  0.24533407044755362  0.24533409211110654  0.7546659048182539  1.0000
  Cl  Cl2       1.0  0.7546659385768203  0.7546659309123002  0.24533406659197118  1.0000
  Cl  Cl3       1.0  0.754665910838119  0.245334088955076  0.2453341060139846  1.0000
  Cl  Cl4       1.0  0.2453341479667133  0.7546658195953957  0.7546658244070213  1.0000
  Cl  Cl5       1.0  0.2453340974849034  0.7546658741494798  0.245334113306222  1.0000
  Cl  Cl6       1.0  0.7546658743401502  0.24533412597934015  0.7546658550781034  1.0000
