data_image0
_chemical_formula_structural       Ba2SeF6
_chemical_formula_sum              "Ba2 Se1 F6"
_cell_length_a       6.077888846232296
_cell_length_b       6.0778888987653135
_cell_length_c       6.077888277518157
_cell_angle_alpha    60.00000245071509
_cell_angle_beta     60.000002155341996
_cell_angle_gamma    60.00000276275881

_space_group_name_H-M_alt    "P 1"
_space_group_IT_number       1

loop_
  _space_group_symop_operation_xyz
  'x, y, z'

loop_
  _atom_site_type_symbol
  _atom_site_label
  _atom_site_symmetry_multiplicity
  _atom_site_fract_x
  _atom_site_fract_y
  _atom_site_fract_z
  _atom_site_occupancy
  Ba  Ba1       1.0  0.2500000304906477  0.24999998259593958  0.25000001316117765  1.0000
  Ba  Ba2       1.0  0.7499999595566278  0.7500000243609573  0.7500000474109222  1.0000
  Se  Se1       1.0  9.499190903187452e-09  2.7263898653068584e-16  0.9999999722160882  1.0000
  F   F1        1.0  0.25566059405990316  0.2556606021866891  0.7443394052522435  1.0000
  F   F2        1.0  0.7443393745129313  0.7443394349964475  0.25566055387076747  1.0000
  F   F3        1.0  0.7443393799749897  0.25566061769144527  0.2556606167006078  1.0000
  F   F4        1.0  0.2556605293373563  0.7443394718838386  0.744339396861131  1.0000
  F   F5        1.0  0.25566065794894627  0.7443393564130418  0.25566063471268274  1.0000
  F   F6        1.0  0.744339419434957  0.25566055381989033  0.7443393466423627  1.0000
