data_image0
_chemical_formula_structural       Ba2ScI6
_chemical_formula_sum              "Ba2 Sc1 I6"
_cell_length_a       8.10146222018466
_cell_length_b       8.101462278045103
_cell_length_c       8.10146217515324
_cell_angle_alpha    59.99999962328949
_cell_angle_beta     60.000001773758676
_cell_angle_gamma    60.000000676888085

_space_group_name_H-M_alt    "P 1"
_space_group_IT_number       1

loop_
  _space_group_symop_operation_xyz
  'x, y, z'

loop_
  _atom_site_type_symbol
  _atom_site_label
  _atom_site_symmetry_multiplicity
  _atom_site_fract_x
  _atom_site_fract_y
  _atom_site_fract_z
  _atom_site_occupancy
  Ba  Ba1       1.0  0.250000041651343  0.2500000185253807  0.24999994455354482  1.0000
  Ba  Ba2       1.0  0.7499999718295486  0.749999963358914  0.7500000661881998  1.0000
  Sc  Sc1       1.0  1.9348968428817957e-08  3.174691666573791e-08  0.9999997855972598  1.0000
  I   I1        1.0  0.2518863830361363  0.2518864111164265  0.7481135766417143  1.0000
  I   I2        1.0  0.7481135901905491  0.7481135889089625  0.2518863735645707  1.0000
  I   I3        1.0  0.7481135509434056  0.251886456693774  0.25188641604486284  1.0000
  I   I4        1.0  0.25188632410803263  0.7481136839250867  0.7481137018071056  1.0000
  I   I5        1.0  0.251886456462002  0.7481135281189595  0.25188642973130226  1.0000
  I   I6        1.0  0.7481136675179137  0.2518863146836167  0.748113706392849  1.0000
