data_image0
_chemical_formula_structural       Ba2SnI6
_chemical_formula_sum              "Ba2 Sn1 I6"
_cell_length_a       8.184971645273524
_cell_length_b       8.184971684539239
_cell_length_c       8.184971448365655
_cell_angle_alpha    60.00000039156904
_cell_angle_beta     60.000001829495545
_cell_angle_gamma    59.99999854474791

_space_group_name_H-M_alt    "P 1"
_space_group_IT_number       1

loop_
  _space_group_symop_operation_xyz
  'x, y, z'

loop_
  _atom_site_type_symbol
  _atom_site_label
  _atom_site_symmetry_multiplicity
  _atom_site_fract_x
  _atom_site_fract_y
  _atom_site_fract_z
  _atom_site_occupancy
  Ba  Ba1       1.0  0.2499999637651132  0.25000005184836277  0.250000045106969  1.0000
  Ba  Ba2       1.0  0.750000013393145  0.7499999670070447  0.7499999119732421  1.0000
  Sn  Sn1       1.0  1.2723656102427735e-08  9.726168839195302e-08  0.99999997432936  1.0000
  I   I1        1.0  0.26116736692275333  0.2611673328133507  0.7388326341562726  1.0000
  I   I2        1.0  0.7388326041939605  0.7388326576117165  0.2611674097997085  1.0000
  I   I3        1.0  0.7388326403199813  0.2611673332273571  0.26116733280103654  1.0000
  I   I4        1.0  0.2611674021194519  0.7388325913590275  0.7388326387730995  1.0000
  I   I5        1.0  0.2611673079950448  0.7388326725860664  0.2611673552859611  1.0000
  I   I6        1.0  0.7388326842977061  0.2611672924013276  0.7388327005748493  1.0000
