data_image0
_chemical_formula_structural       Ba2SnCl6
_chemical_formula_sum              "Ba2 Sn1 Cl6"
_cell_length_a       7.278958500354368
_cell_length_b       7.278958652316073
_cell_length_c       7.278958576946748
_cell_angle_alpha    59.99999868336936
_cell_angle_beta     60.000002184137095
_cell_angle_gamma    60.000000300031516

_space_group_name_H-M_alt    "P 1"
_space_group_IT_number       1

loop_
  _space_group_symop_operation_xyz
  'x, y, z'

loop_
  _atom_site_type_symbol
  _atom_site_label
  _atom_site_symmetry_multiplicity
  _atom_site_fract_x
  _atom_site_fract_y
  _atom_site_fract_z
  _atom_site_occupancy
  Ba  Ba1       1.0  0.24999998796271014  0.24999999962552427  0.2500000039436931  1.0000
  Ba  Ba2       1.0  0.7500000321178644  0.7499999702726692  0.7500000085040408  1.0000
  Sn  Sn1       1.0  1.5038475944550082e-07  0.999999905775377  0.9999999719199358  1.0000
  Cl  Cl1       1.0  0.2596389959014204  0.2596390315126702  0.7403609994161483  1.0000
  Cl  Cl2       1.0  0.7403609672463565  0.7403609568939309  0.2596390459820082  1.0000
  Cl  Cl3       1.0  0.7403609456115756  0.25963901108660736  0.25963905256203146  1.0000
  Cl  Cl4       1.0  0.2596389851355216  0.7403610126542269  0.7403610037337534  1.0000
  Cl  Cl5       1.0  0.25963892936703653  0.7403611003293917  0.25963892664900046  1.0000
  Cl  Cl6       1.0  0.7403610114095113  0.2596390075405736  0.7403609836522436  1.0000
