data_image0
_chemical_formula_structural       Ba2SBr6
_chemical_formula_sum              "Ba2 S1 Br6"
_cell_length_a       7.428731570045726
_cell_length_b       7.428731552268371
_cell_length_c       7.4287316767261355
_cell_angle_alpha    59.99999957345885
_cell_angle_beta     60.000000882434776
_cell_angle_gamma    60.000000901331255

_space_group_name_H-M_alt    "P 1"
_space_group_IT_number       1

loop_
  _space_group_symop_operation_xyz
  'x, y, z'

loop_
  _atom_site_type_symbol
  _atom_site_label
  _atom_site_symmetry_multiplicity
  _atom_site_fract_x
  _atom_site_fract_y
  _atom_site_fract_z
  _atom_site_occupancy
  Ba  Ba1       1.0  0.24999999359256544  0.250000049720426  0.24999998002371418  1.0000
  Ba  Ba2       1.0  0.7500000250571667  0.749999946376162  0.7499999856708452  1.0000
  S   S1        1.0  0.9999999713936569  0.9999999785674264  2.6365582870506604e-08  1.0000
  Br  Br1       1.0  0.2531652511897169  0.25316524661381395  0.7468347409191992  1.0000
  Br  Br2       1.0  0.746834769186786  0.7468347676180283  0.25316522157497184  1.0000
  Br  Br3       1.0  0.746834754782703  0.2531652333749805  0.2531652731849592  1.0000
  Br  Br4       1.0  0.253165245308866  0.7468347577756285  0.7468347702217866  1.0000
  Br  Br5       1.0  0.25316523565758703  0.7468347711341067  0.25316525927963063  1.0000
  Br  Br6       1.0  0.7468347556411312  0.25316524639505417  0.7468347362966453  1.0000
