data_image0
_chemical_formula_structural       Ba2SnBr6
_chemical_formula_sum              "Ba2 Sn1 Br6"
_cell_length_a       7.595948216767933
_cell_length_b       7.595948122497107
_cell_length_c       7.595948067730908
_cell_angle_alpha    59.99999970543523
_cell_angle_beta     59.99999997690377
_cell_angle_gamma    60.00000010911163

_space_group_name_H-M_alt    "P 1"
_space_group_IT_number       1

loop_
  _space_group_symop_operation_xyz
  'x, y, z'

loop_
  _atom_site_type_symbol
  _atom_site_label
  _atom_site_symmetry_multiplicity
  _atom_site_fract_x
  _atom_site_fract_y
  _atom_site_fract_z
  _atom_site_occupancy
  Ba  Ba1       1.0  0.24999994220849628  0.2500000329565369  0.25000000831502034  1.0000
  Ba  Ba2       1.0  0.750000044884782  0.7499999731050612  0.7499999905461109  1.0000
  Sn  Sn1       1.0  8.214613316859275e-09  2.0960758610687343e-08  0.9999999511835386  1.0000
  Br  Br1       1.0  0.2607559874656025  0.26075598963858676  0.7392440225364855  1.0000
  Br  Br2       1.0  0.7392440002573437  0.739244009973547  0.2607559989819142  1.0000
  Br  Br3       1.0  0.7392440227293123  0.2607559607544388  0.2607559681422589  1.0000
  Br  Br4       1.0  0.26075598100925995  0.7392440227340348  0.7392440310498047  1.0000
  Br  Br5       1.0  0.26075599657439763  0.7392440131236785  0.26075600029871526  1.0000
  Br  Br6       1.0  0.7392440192331879  0.26075597520189325  0.739244028618542  1.0000
