data_image0
_chemical_formula_structural       Ba2SI6
_chemical_formula_sum              "Ba2 S1 I6"
_cell_length_a       7.916682450940206
_cell_length_b       7.916682530560881
_cell_length_c       7.916682689521614
_cell_angle_alpha    59.99999909405581
_cell_angle_beta     59.99999956761722
_cell_angle_gamma    60.000002202707506

_space_group_name_H-M_alt    "P 1"
_space_group_IT_number       1

loop_
  _space_group_symop_operation_xyz
  'x, y, z'

loop_
  _atom_site_type_symbol
  _atom_site_label
  _atom_site_symmetry_multiplicity
  _atom_site_fract_x
  _atom_site_fract_y
  _atom_site_fract_z
  _atom_site_occupancy
  Ba  Ba1       1.0  0.25000011054321186  0.2499999403757347  0.24999997960166817  1.0000
  Ba  Ba2       1.0  0.7499999122070705  0.7500000423543483  0.750000012639606  1.0000
  S   S1        1.0  1.2007257009950298e-08  7.735215593366295e-09  0.9999999926550744  1.0000
  I   I1        1.0  0.2602688927026723  0.260268762916944  0.7397311741487098  1.0000
  I   I2        1.0  0.7397310865560548  0.7397312058897503  0.260268849326347  1.0000
  I   I3        1.0  0.7397311213734161  0.26026883524783  0.2602688839474502  1.0000
  I   I4        1.0  0.2602688739876568  0.7397311815171993  0.7397311037078  1.0000
  I   I5        1.0  0.26026882175966976  0.7397311637422974  0.26026890069078856  1.0000
  I   I6        1.0  0.7397311671629809  0.2602688592109038  0.7397311085632275  1.0000
