data_image0
_chemical_formula_structural       Ba2ScBr6
_chemical_formula_sum              "Ba2 Sc1 Br6"
_cell_length_a       7.468315257519801
_cell_length_b       7.4683153548063315
_cell_length_c       7.468315293240972
_cell_angle_alpha    60.00000131259914
_cell_angle_beta     59.99999971494338
_cell_angle_gamma    60.0000020512088

_space_group_name_H-M_alt    "P 1"
_space_group_IT_number       1

loop_
  _space_group_symop_operation_xyz
  'x, y, z'

loop_
  _atom_site_type_symbol
  _atom_site_label
  _atom_site_symmetry_multiplicity
  _atom_site_fract_x
  _atom_site_fract_y
  _atom_site_fract_z
  _atom_site_occupancy
  Ba  Ba1       1.0  0.25000003096676354  0.250000111138099  0.2499997610734773  1.0000
  Ba  Ba2       1.0  0.7499999955477226  0.7499999250739326  0.7500002042229389  1.0000
  Sc  Sc1       1.0  1.964687106238173e-08  0.9999999967201587  5.742699837120617e-08  1.0000
  Br  Br1       1.0  0.2501035873297056  0.25010349134432597  0.7498965155144708  1.0000
  Br  Br2       1.0  0.7498964334852835  0.7498964923902289  0.2501035498369053  1.0000
  Br  Br3       1.0  0.7498964373602541  0.25010356902676095  0.2501035809951831  1.0000
  Br  Br4       1.0  0.2501036129572246  0.7498963540307096  0.7498963794343839  1.0000
  Br  Br5       1.0  0.25010351025084715  0.7498964692534708  0.2501035640297829  1.0000
  Br  Br6       1.0  0.7498963652731983  0.2501035931972968  0.7498964114218735  1.0000
