data_image0
_chemical_formula_structural       Ba2SCl6
_chemical_formula_sum              "Ba2 S1 Cl6"
_cell_length_a       7.133901117298187
_cell_length_b       7.133901201551853
_cell_length_c       7.133901298221004
_cell_angle_alpha    59.99999687199576
_cell_angle_beta     59.9999991155885
_cell_angle_gamma    60.00000145954065

_space_group_name_H-M_alt    "P 1"
_space_group_IT_number       1

loop_
  _space_group_symop_operation_xyz
  'x, y, z'

loop_
  _atom_site_type_symbol
  _atom_site_label
  _atom_site_symmetry_multiplicity
  _atom_site_fract_x
  _atom_site_fract_y
  _atom_site_fract_z
  _atom_site_occupancy
  Ba  Ba1       1.0  0.25000001658731014  0.24999996870327357  0.25000008082884173  1.0000
  Ba  Ba2       1.0  0.7500000029343755  0.7500000417366671  0.7499998995125189  1.0000
  S   S1        1.0  1.2177360799096163e-08  1.819803181186781e-07  0.9999998314315218  1.0000
  Cl  Cl1       1.0  0.2515621508753777  0.2515621842731013  0.7484378092711341  1.0000
  Cl  Cl2       1.0  0.7484377447679951  0.7484376733720423  0.2515623037997544  1.0000
  Cl  Cl3       1.0  0.7484376983938038  0.2515622978115883  0.25156223519550414  1.0000
  Cl  Cl4       1.0  0.2515622779639812  0.7484377692825979  0.7484378084885603  1.0000
  Cl  Cl5       1.0  0.2515622878067496  0.7484376967348942  0.2515622507599272  1.0000
  Cl  Cl6       1.0  0.7484378270839507  0.25156220726373074  0.7484378080089784  1.0000
