data_image0
_chemical_formula_structural       Ba2SrI6
_chemical_formula_sum              "Ba2 Sr1 I6"
_cell_length_a       8.270336741975912
_cell_length_b       8.270336765933417
_cell_length_c       8.270336538049055
_cell_angle_alpha    60.00000117609558
_cell_angle_beta     60.00000207923748
_cell_angle_gamma    59.99999971808816

_space_group_name_H-M_alt    "P 1"
_space_group_IT_number       1

loop_
  _space_group_symop_operation_xyz
  'x, y, z'

loop_
  _atom_site_type_symbol
  _atom_site_label
  _atom_site_symmetry_multiplicity
  _atom_site_fract_x
  _atom_site_fract_y
  _atom_site_fract_z
  _atom_site_occupancy
  Ba  Ba1       1.0  0.25000001669820365  0.2500000171858259  0.2499999908997863  1.0000
  Ba  Ba2       1.0  0.7500000090000563  0.749999961223265  0.7499999803749914  1.0000
  Sr  Sr1       1.0  0.9999999964453677  3.9983996168503276e-08  0.9999999854127399  1.0000
  I   I1        1.0  0.26588576568885425  0.26588573029417717  0.734114249269435  1.0000
  I   I2        1.0  0.7341141957844227  0.7341142481149145  0.2658857903920523  1.0000
  I   I3        1.0  0.7341142456522198  0.2658857713867605  0.2658857475478993  1.0000
  I   I4        1.0  0.26588577807152186  0.7341142129458853  0.7341142471443134  1.0000
  I   I5        1.0  0.26588574842163987  0.7341142211814892  0.2658857677308449  1.0000
  I   I6        1.0  0.7341142485904731  0.2658857972115981  0.7341142317509458  1.0000
