data_image0
_chemical_formula_structural       Ba2SeBr6
_chemical_formula_sum              "Ba2 Se1 Br6"
_cell_length_a       7.543595077443718
_cell_length_b       7.543594682253789
_cell_length_c       7.543594980422393
_cell_angle_alpha    60.00000055354606
_cell_angle_beta     59.999999100597805
_cell_angle_gamma    60.000000265411785

_space_group_name_H-M_alt    "P 1"
_space_group_IT_number       1

loop_
  _space_group_symop_operation_xyz
  'x, y, z'

loop_
  _atom_site_type_symbol
  _atom_site_label
  _atom_site_symmetry_multiplicity
  _atom_site_fract_x
  _atom_site_fract_y
  _atom_site_fract_z
  _atom_site_occupancy
  Ba  Ba1       1.0  0.25000001958650153  0.2500000185526014  0.24999987984219235  1.0000
  Ba  Ba2       1.0  0.7500000005477133  0.7499999777271239  0.7500000854017647  1.0000
  Se  Se1       1.0  1.1231438489378893e-07  0.9999999431755393  0.9999999404399663  1.0000
  Br  Br1       1.0  0.2542579850992483  0.2542579891877822  0.7457420191333469  1.0000
  Br  Br2       1.0  0.7457419504748765  0.7457420265746154  0.2542580184181571  1.0000
  Br  Br3       1.0  0.7457419620270024  0.2542580094787951  0.2542580312027902  1.0000
  Br  Br4       1.0  0.25425797084119495  0.7457420144013835  0.7457420381091127  1.0000
  Br  Br5       1.0  0.2542579995991852  0.7457419983247204  0.2542579940355  1.0000
  Br  Br6       1.0  0.7457419992749581  0.2542580158141215  0.7457419980958652  1.0000
