data_image0
_chemical_formula_structural       Ba2SrBr6
_chemical_formula_sum              "Ba2 Sr1 Br6"
_cell_length_a       7.728840642705051
_cell_length_b       7.728840675809395
_cell_length_c       7.728840440354482
_cell_angle_alpha    60.00000122134479
_cell_angle_beta     60.00000044699001
_cell_angle_gamma    59.999999723737375

_space_group_name_H-M_alt    "P 1"
_space_group_IT_number       1

loop_
  _space_group_symop_operation_xyz
  'x, y, z'

loop_
  _atom_site_type_symbol
  _atom_site_label
  _atom_site_symmetry_multiplicity
  _atom_site_fract_x
  _atom_site_fract_y
  _atom_site_fract_z
  _atom_site_occupancy
  Ba  Ba1       1.0  0.24999998258035716  0.25000009063293765  0.24999997462687026  1.0000
  Ba  Ba2       1.0  0.7499999969582833  0.7499999628935455  0.7500000757701754  1.0000
  Sr  Sr1       1.0  3.024281361563625e-08  0.9999999809842904  0.9999998753517741  1.0000
  Br  Br1       1.0  0.26477641660988993  0.26477637728691517  0.7352235793051458  1.0000
  Br  Br2       1.0  0.7352236283651081  0.7352235874995929  0.2647763740598757  1.0000
  Br  Br3       1.0  0.7352235862585549  0.26477640887104525  0.2647763671333097  1.0000
  Br  Br4       1.0  0.2647762697583902  0.7352237238875591  0.7352236795314204  1.0000
  Br  Br5       1.0  0.26477637404385684  0.7352235873088658  0.26477637333258264  1.0000
  Br  Br6       1.0  0.7352237169453004  0.26477628873766795  0.7352236932590618  1.0000
