data_image0
_chemical_formula_structural       Ba2SrCl6
_chemical_formula_sum              "Ba2 Sr1 Cl6"
_cell_length_a       7.3512942142589415
_cell_length_b       7.3512941589560405
_cell_length_c       7.351294326713114
_cell_angle_alpha    59.99999930184217
_cell_angle_beta     59.999999401262244
_cell_angle_gamma    60.000000890210636

_space_group_name_H-M_alt    "P 1"
_space_group_IT_number       1

loop_
  _space_group_symop_operation_xyz
  'x, y, z'

loop_
  _atom_site_type_symbol
  _atom_site_label
  _atom_site_symmetry_multiplicity
  _atom_site_fract_x
  _atom_site_fract_y
  _atom_site_fract_z
  _atom_site_occupancy
  Ba  Ba1       1.0  0.24999999430049719  0.2499999542157009  0.24999998440817559  1.0000
  Ba  Ba2       1.0  0.7500000046985493  0.7500000375798553  0.750000008574049  1.0000
  Sr  Sr1       1.0  0.9999999743753321  5.331283815471991e-08  0.9999998487651434  1.0000
  Cl  Cl1       1.0  0.2642411504523247  0.2642411703151215  0.7357588304693965  1.0000
  Cl  Cl2       1.0  0.7357588340288943  0.7357588414727491  0.26424116929771746  1.0000
  Cl  Cl3       1.0  0.7357588639300727  0.2642411529133273  0.26424117243100664  1.0000
  Cl  Cl4       1.0  0.26424113294288715  0.7357588405482554  0.7357588738331302  1.0000
  Cl  Cl5       1.0  0.2642411648591261  0.7357588450779442  0.2642411845785095  1.0000
  Cl  Cl6       1.0  0.7357588841505962  0.26424110506695786  0.7357589266511245  1.0000
