data_image0
_chemical_formula_structural       Ba2ScCl6
_chemical_formula_sum              "Ba2 Sc1 Cl6"
_cell_length_a       7.1077177050010025
_cell_length_b       7.107717654906169
_cell_length_c       7.107717387710992
_cell_angle_alpha    60.00000089362038
_cell_angle_beta     60.000001249987854
_cell_angle_gamma    59.99999929363996

_space_group_name_H-M_alt    "P 1"
_space_group_IT_number       1

loop_
  _space_group_symop_operation_xyz
  'x, y, z'

loop_
  _atom_site_type_symbol
  _atom_site_label
  _atom_site_symmetry_multiplicity
  _atom_site_fract_x
  _atom_site_fract_y
  _atom_site_fract_z
  _atom_site_occupancy
  Ba  Ba1       1.0  0.25000001102327335  0.24999999747252777  0.2500000081894254  1.0000
  Ba  Ba2       1.0  0.7499999845944582  0.750000035495578  0.7499999442585946  1.0000
  Sc  Sc1       1.0  5.15303179382266e-08  0.999999796671869  0.9999999661590345  1.0000
  Cl  Cl1       1.0  0.24863337515140796  0.24863335864585456  0.7513666196776263  1.0000
  Cl  Cl2       1.0  0.7513666500690059  0.7513667122308852  0.24863333278085015  1.0000
  Cl  Cl3       1.0  0.7513666680579948  0.24863332476274136  0.24863327865157683  1.0000
  Cl  Cl4       1.0  0.2486332456074475  0.7513668029769515  0.751366791195881  1.0000
  Cl  Cl5       1.0  0.24863330219380197  0.7513667097689484  0.24863328127468892  1.0000
  Cl  Cl6       1.0  0.751366723471525  0.24863325255124716  0.7513667561918751  1.0000
