data_image0
_chemical_formula_structural       Ba2SrF6
_chemical_formula_sum              "Ba2 Sr1 F6"
_cell_length_a       6.169568590141093
_cell_length_b       6.16956848116705
_cell_length_c       6.169568529049469
_cell_angle_alpha    60.00000048126882
_cell_angle_beta     60.00000030772443
_cell_angle_gamma    59.99999941993379

_space_group_name_H-M_alt    "P 1"
_space_group_IT_number       1

loop_
  _space_group_symop_operation_xyz
  'x, y, z'

loop_
  _atom_site_type_symbol
  _atom_site_label
  _atom_site_symmetry_multiplicity
  _atom_site_fract_x
  _atom_site_fract_y
  _atom_site_fract_z
  _atom_site_occupancy
  Ba  Ba1       1.0  0.25000000796706656  0.25000000585058024  0.2500000180275538  1.0000
  Ba  Ba2       1.0  0.7500000143161029  0.7500000294625716  0.7499999556682609  1.0000
  Sr  Sr1       1.0  0.9999999876739987  0.9999999920594456  1.499585450430401e-08  1.0000
  F   F1        1.0  0.260484812982837  0.2604848750021094  0.7395151510919555  1.0000
  F   F2        1.0  0.7395151866334683  0.7395151384745178  0.26048485133898897  1.0000
  F   F3        1.0  0.7395151361285318  0.26048486189100134  0.2604848608613618  1.0000
  F   F4        1.0  0.26048485469740085  0.7395151218085463  0.7395151332987077  1.0000
  F   F5        1.0  0.2604848677112278  0.7395150998987426  0.26048488367229405  1.0000
  F   F6        1.0  0.7395151478997191  0.2604848599791413  0.7395151197312532  1.0000
