data_image0
_chemical_formula_structural       Ba2SeCl6
_chemical_formula_sum              "Ba2 Se1 Cl6"
_cell_length_a       7.183482044707003
_cell_length_b       7.183482359121498
_cell_length_c       7.183482421601031
_cell_angle_alpha    60.00000011672018
_cell_angle_beta     60.0000007300938
_cell_angle_gamma    60.00000142979473

_space_group_name_H-M_alt    "P 1"
_space_group_IT_number       1

loop_
  _space_group_symop_operation_xyz
  'x, y, z'

loop_
  _atom_site_type_symbol
  _atom_site_label
  _atom_site_symmetry_multiplicity
  _atom_site_fract_x
  _atom_site_fract_y
  _atom_site_fract_z
  _atom_site_occupancy
  Ba  Ba1       1.0  0.2500000873812948  0.2499999568631661  0.24999997483656305  1.0000
  Ba  Ba2       1.0  0.7499999234590413  0.7500000138049496  0.7500000500860287  1.0000
  Se  Se1       1.0  2.986405407241489e-09  6.819783477476517e-08  1.730701428349887e-08  1.0000
  Cl  Cl1       1.0  0.2485483599013563  0.24854840960372354  0.7514516231999864  1.0000
  Cl  Cl2       1.0  0.7514515913662494  0.7514515661792295  0.24854842755946843  1.0000
  Cl  Cl3       1.0  0.7514516027861201  0.2485484137913944  0.2485483587089694  1.0000
  Cl  Cl4       1.0  0.24854841221070723  0.7514515636965052  0.751451607826351  1.0000
  Cl  Cl5       1.0  0.24854839947393226  0.7514515933555755  0.24854835996466232  1.0000
  Cl  Cl6       1.0  0.7514516076472592  0.24854843187080855  0.7514515713263268  1.0000
