data_image0
_chemical_formula_structural       Ba2ScF6
_chemical_formula_sum              "Ba2 Sc1 F6"
_cell_length_a       6.130065021841493
_cell_length_b       6.130065100446448
_cell_length_c       6.130065203901868
_cell_angle_alpha    60.00000083936873
_cell_angle_beta     60.000002234437254
_cell_angle_gamma    60.00000267459341

_space_group_name_H-M_alt    "P 1"
_space_group_IT_number       1

loop_
  _space_group_symop_operation_xyz
  'x, y, z'

loop_
  _atom_site_type_symbol
  _atom_site_label
  _atom_site_symmetry_multiplicity
  _atom_site_fract_x
  _atom_site_fract_y
  _atom_site_fract_z
  _atom_site_occupancy
  Ba  Ba1       1.0  0.250000023711917  0.2500000211364339  0.2499999990265895  1.0000
  Ba  Ba2       1.0  0.7499999936964515  0.7500000414320561  0.7499999309654536  1.0000
  Sc  Sc1       1.0  3.426841380545112e-08  0.9999999480537888  7.572236373817245e-08  1.0000
  F   F1        1.0  0.23897820239340598  0.23897820535354208  0.7610217956677033  1.0000
  F   F2        1.0  0.7610217601046237  0.7610217733018351  0.23897824941257584  1.0000
  F   F3        1.0  0.7610218573407108  0.2389781403529139  0.2389781846164007  1.0000
  F   F4        1.0  0.23897819639281437  0.7610217623810781  0.761021872382473  1.0000
  F   F5        1.0  0.2389781460332034  0.7610218683439415  0.23897812342058003  1.0000
  F   F6        1.0  0.7610217900346641  0.23897821220592788  0.7610217632110373  1.0000
