data_image0
_chemical_formula_structural       Ba2SeI6
_chemical_formula_sum              "Ba2 Se1 I6"
_cell_length_a       8.031571184264239
_cell_length_b       8.0315714973807
_cell_length_c       8.03157115823262
_cell_angle_alpha    59.99999855809171
_cell_angle_beta     60.000000913785925
_cell_angle_gamma    59.999998517508445

_space_group_name_H-M_alt    "P 1"
_space_group_IT_number       1

loop_
  _space_group_symop_operation_xyz
  'x, y, z'

loop_
  _atom_site_type_symbol
  _atom_site_label
  _atom_site_symmetry_multiplicity
  _atom_site_fract_x
  _atom_site_fract_y
  _atom_site_fract_z
  _atom_site_occupancy
  Ba  Ba1       1.0  0.2500000403755601  0.24999999833803474  0.2500000441483217  1.0000
  Ba  Ba2       1.0  0.7499999551954375  0.7500000011137703  0.7499999085596715  1.0000
  Se  Se1       1.0  3.0293914507508445e-08  0.9999999695017376  0.9999999702201012  1.0000
  I   I1        1.0  0.26262867960978664  0.26262866916795374  0.7373713342485197  1.0000
  I   I2        1.0  0.7373713283922253  0.7373713318087618  0.26262868369652215  1.0000
  I   I3        1.0  0.7373713154112593  0.26262868744084217  0.26262866240247623  1.0000
  I   I4        1.0  0.2626286722735404  0.7373713486088747  0.7373713867623486  1.0000
  I   I5        1.0  0.26262865093244897  0.7373713363601058  0.26262864465242564  1.0000
  I   I6        1.0  0.7373713260356359  0.2626286585169586  0.737371365712591  1.0000
