data_image0
_chemical_formula_structural       Ba2TiCl6
_chemical_formula_sum              "Ba2 Ti1 Cl6"
_cell_length_a       7.036654185280355
_cell_length_b       7.0366540994292475
_cell_length_c       7.0366539669812775
_cell_angle_alpha    59.999999854112545
_cell_angle_beta     60.00000154349354
_cell_angle_gamma    59.99999941843214

_space_group_name_H-M_alt    "P 1"
_space_group_IT_number       1

loop_
  _space_group_symop_operation_xyz
  'x, y, z'

loop_
  _atom_site_type_symbol
  _atom_site_label
  _atom_site_symmetry_multiplicity
  _atom_site_fract_x
  _atom_site_fract_y
  _atom_site_fract_z
  _atom_site_occupancy
  Ba  Ba1       1.0  0.2500000199962787  0.25000003433244933  0.24999997754933798  1.0000
  Ba  Ba2       1.0  0.7499999706820812  0.7499999672366598  0.7500000338126958  1.0000
  Ti  Ti1       1.0  3.6664645382847246e-08  2.7848343920075297e-08  1.7807074423439589e-07  1.0000
  Cl  Cl1       1.0  0.24742821379264182  0.24742811935116904  0.7525717708575062  1.0000
  Cl  Cl2       1.0  0.7525719586875103  0.7525718143375955  0.2474281096450453  1.0000
  Cl  Cl3       1.0  0.7525717170615897  0.24742814840403668  0.247428206446411  1.0000
  Cl  Cl4       1.0  0.24742816647247082  0.7525718496840306  0.7525718147521333  1.0000
  Cl  Cl5       1.0  0.2474280681577586  0.7525719595036335  0.24742812896664856  1.0000
  Cl  Cl6       1.0  0.7525718680525713  0.24742808731903987  0.752571793208038  1.0000
