data_image0
_chemical_formula_structural       Ba2TiBr6
_chemical_formula_sum              "Ba2 Ti1 Br6"
_cell_length_a       7.403398494655495
_cell_length_b       7.403398294734682
_cell_length_c       7.403398336661977
_cell_angle_alpha    60.00000187959751
_cell_angle_beta     60.0000003210284
_cell_angle_gamma    59.99999859938871

_space_group_name_H-M_alt    "P 1"
_space_group_IT_number       1

loop_
  _space_group_symop_operation_xyz
  'x, y, z'

loop_
  _atom_site_type_symbol
  _atom_site_label
  _atom_site_symmetry_multiplicity
  _atom_site_fract_x
  _atom_site_fract_y
  _atom_site_fract_z
  _atom_site_occupancy
  Ba  Ba1       1.0  0.24999993988880867  0.25000006911062206  0.2500000191646574  1.0000
  Ba  Ba2       1.0  0.7500000588235186  0.7499999343722079  0.7500000068586978  1.0000
  Ti  Ti1       1.0  6.903726464783765e-08  0.9999999239021563  4.881019176093247e-09  1.0000
  Br  Br1       1.0  0.24970827224970946  0.24970827942117274  0.7502917129316535  1.0000
  Br  Br2       1.0  0.7502916780959998  0.7502917521847728  0.2497082826915219  1.0000
  Br  Br3       1.0  0.7502917182253427  0.2497082786852092  0.24970826933219611  1.0000
  Br  Br4       1.0  0.24970824083246043  0.7502917595379405  0.7502917402380275  1.0000
  Br  Br5       1.0  0.24970827895559147  0.7502917305375129  0.24970827771958773  1.0000
  Br  Br6       1.0  0.7502917394812707  0.2497082745996164  0.7502916916894946  1.0000
