data_image0
_chemical_formula_structural       Ba2TiF6
_chemical_formula_sum              "Ba2 Ti1 F6"
_cell_length_a       5.977837463627509
_cell_length_b       5.9778372882591295
_cell_length_c       5.977837327683792
_cell_angle_alpha    60.000000657514526
_cell_angle_beta     60.00000135991018
_cell_angle_gamma    60.00000077111075

_space_group_name_H-M_alt    "P 1"
_space_group_IT_number       1

loop_
  _space_group_symop_operation_xyz
  'x, y, z'

loop_
  _atom_site_type_symbol
  _atom_site_label
  _atom_site_symmetry_multiplicity
  _atom_site_fract_x
  _atom_site_fract_y
  _atom_site_fract_z
  _atom_site_occupancy
  Ba  Ba1       1.0  0.2500000059633154  0.2499999745444564  0.24999996506627745  1.0000
  Ba  Ba2       1.0  0.75000001730408  0.7499999543655098  0.7500000156262043  1.0000
  Ti  Ti1       1.0  0.9999999462255084  5.1220232385723166e-08  2.8042662350176814e-08  1.0000
  F   F1        1.0  0.2422266633460324  0.24222668721050755  0.7577733478987408  1.0000
  F   F2        1.0  0.7577733402132765  0.757773329798259  0.242226658820833  1.0000
  F   F3        1.0  0.7577733525356821  0.24222668114469176  0.24222668943651685  1.0000
  F   F4        1.0  0.24222670093484663  0.7577732846438424  0.757773294517722  1.0000
  F   F5        1.0  0.24222664484635678  0.7577733565157374  0.24222666649172553  1.0000
  F   F6        1.0  0.7577733695026575  0.24222666868826648  0.7577733273896854  1.0000
