data_image0
_chemical_formula_structural       Ba2TiI6
_chemical_formula_sum              "Ba2 Ti1 I6"
_cell_length_a       8.076757700939622
_cell_length_b       8.076757660014167
_cell_length_c       8.076757709310936
_cell_angle_alpha    60.00000045344395
_cell_angle_beta     59.99999947576076
_cell_angle_gamma    60.000001488937166

_space_group_name_H-M_alt    "P 1"
_space_group_IT_number       1

loop_
  _space_group_symop_operation_xyz
  'x, y, z'

loop_
  _atom_site_type_symbol
  _atom_site_label
  _atom_site_symmetry_multiplicity
  _atom_site_fract_x
  _atom_site_fract_y
  _atom_site_fract_z
  _atom_site_occupancy
  Ba  Ba1       1.0  0.24999974047243645  0.24999997821655343  0.25000027906109995  1.0000
  Ba  Ba2       1.0  0.750000241960528  0.7500000468619273  0.7499997124131688  1.0000
  Ti  Ti1       1.0  0.9999999692115422  1.5163816323343227e-08  0.999999845618524  1.0000
  I   I1        1.0  0.24947026752747814  0.24947025760065042  0.7505297229756321  1.0000
  I   I2        1.0  0.7505297550375267  0.7505297371501943  0.24947025616771043  1.0000
  I   I3        1.0  0.7505296730762857  0.2494703058761672  0.24947031103250766  1.0000
  I   I4        1.0  0.24947023481123123  0.7505297798575865  0.750529771579049  1.0000
  I   I5        1.0  0.24947031273134798  0.7505296736098782  0.24947032900878008  1.0000
  I   I6        1.0  0.7505298092185161  0.24947020741233164  0.7505297650229406  1.0000
