data_image0
_chemical_formula_structural       Ba2VI6
_chemical_formula_sum              "Ba2 V1 I6"
_cell_length_a       7.984195954216571
_cell_length_b       7.984196139474698
_cell_length_c       7.984195785199268
_cell_angle_alpha    59.99999991408955
_cell_angle_beta     60.00000189564899
_cell_angle_gamma    59.99999868562105

_space_group_name_H-M_alt    "P 1"
_space_group_IT_number       1

loop_
  _space_group_symop_operation_xyz
  'x, y, z'

loop_
  _atom_site_type_symbol
  _atom_site_label
  _atom_site_symmetry_multiplicity
  _atom_site_fract_x
  _atom_site_fract_y
  _atom_site_fract_z
  _atom_site_occupancy
  Ba  Ba1       1.0  0.2499999224939055  0.250000077005443  0.24999992034180477  1.0000
  Ba  Ba2       1.0  0.7500000897034931  0.7499999932522969  0.7499999655339843  1.0000
  V   V1        1.0  0.9999999578536898  6.13584570303806e-08  1.4190937137747865e-08  1.0000
  I   I1        1.0  0.24762095294111772  0.24762098080785738  0.7523790280462961  1.0000
  I   I2        1.0  0.7523789991737687  0.7523789790046597  0.24762105456357358  1.0000
  I   I3        1.0  0.7523790830737291  0.24762095057075242  0.24762095486277785  1.0000
  I   I4        1.0  0.24762099939260884  0.7523789739606506  0.7523790163357357  1.0000
  I   I5        1.0  0.2476209808239135  0.7523789897330807  0.24762102476596126  1.0000
  I   I6        1.0  0.7523790156855424  0.24762099308885654  0.7523790216369652  1.0000
