data_image0
_chemical_formula_structural       Ba2VBr6
_chemical_formula_sum              "Ba2 V1 Br6"
_cell_length_a       7.346964021796549
_cell_length_b       7.346964189126741
_cell_length_c       7.34696406193596
_cell_angle_alpha    59.99999818260478
_cell_angle_beta     59.99999939050333
_cell_angle_gamma    59.99999856124643

_space_group_name_H-M_alt    "P 1"
_space_group_IT_number       1

loop_
  _space_group_symop_operation_xyz
  'x, y, z'

loop_
  _atom_site_type_symbol
  _atom_site_label
  _atom_site_symmetry_multiplicity
  _atom_site_fract_x
  _atom_site_fract_y
  _atom_site_fract_z
  _atom_site_occupancy
  Ba  Ba1       1.0  0.2500000252199874  0.24999997079210523  0.24999999789746077  1.0000
  Ba  Ba2       1.0  0.7499999731663034  0.750000012396804  0.74999998948454  1.0000
  V   V1        1.0  0.9999999505482314  0.999999983329921  0.9999999636444965  1.0000
  Br  Br1       1.0  0.24853916732674716  0.24853915885293232  0.7514608109353326  1.0000
  Br  Br2       1.0  0.7514608466481942  0.7514608860152772  0.24853913917379822  1.0000
  Br  Br3       1.0  0.7514608365314911  0.2485391373300893  0.2485391379056942  1.0000
  Br  Br4       1.0  0.2485391147673125  0.7514608975360704  0.7514609125145328  1.0000
  Br  Br5       1.0  0.24853915412151084  0.751460852002333  0.24853913337547262  1.0000
  Br  Br6       1.0  0.7514609349776866  0.24853909951341877  0.7514609115974654  1.0000
