data_image0
_chemical_formula_structural       Ba2VCl6
_chemical_formula_sum              "Ba2 V1 Cl6"
_cell_length_a       7.000485960381775
_cell_length_b       7.000485952605795
_cell_length_c       7.000485891184592
_cell_angle_alpha    59.99999881057894
_cell_angle_beta     60.000000758484425
_cell_angle_gamma    59.999999546697126

_space_group_name_H-M_alt    "P 1"
_space_group_IT_number       1

loop_
  _space_group_symop_operation_xyz
  'x, y, z'

loop_
  _atom_site_type_symbol
  _atom_site_label
  _atom_site_symmetry_multiplicity
  _atom_site_fract_x
  _atom_site_fract_y
  _atom_site_fract_z
  _atom_site_occupancy
  Ba  Ba1       1.0  0.24999998729260264  0.2499999942807264  0.2500000350035829  1.0000
  Ba  Ba2       1.0  0.750000019791771  0.7500000020868366  0.7499999464397678  1.0000
  V   V1        1.0  4.475263967448759e-08  0.9999999597611714  2.2915560343211376e-07  1.0000
  Cl  Cl1       1.0  0.24678931474729018  0.24678930304113017  0.7532106804108198  1.0000
  Cl  Cl2       1.0  0.7532106907533478  0.7532107475613696  0.24678928184929078  1.0000
  Cl  Cl3       1.0  0.7532107776686308  0.24678916793172323  0.2467892642810745  1.0000
  Cl  Cl4       1.0  0.24678931992158087  0.7532106954727694  0.753210659824919  1.0000
  Cl  Cl5       1.0  0.24678917938867825  0.7532108185115269  0.24678922367424158  1.0000
  Cl  Cl6       1.0  0.7532106622810324  0.24678931781716576  0.7532106790736479  1.0000
