data_image0
_chemical_formula_structural       Ba2VF6
_chemical_formula_sum              "Ba2 V1 F6"
_cell_length_a       5.949153507935038
_cell_length_b       5.949153325877856
_cell_length_c       5.949153643362603
_cell_angle_alpha    59.99999883630926
_cell_angle_beta     59.99999999864952
_cell_angle_gamma    60.00000020137583

_space_group_name_H-M_alt    "P 1"
_space_group_IT_number       1

loop_
  _space_group_symop_operation_xyz
  'x, y, z'

loop_
  _atom_site_type_symbol
  _atom_site_label
  _atom_site_symmetry_multiplicity
  _atom_site_fract_x
  _atom_site_fract_y
  _atom_site_fract_z
  _atom_site_occupancy
  Ba  Ba1       1.0  0.25000001351674384  0.2500000215475554  0.24999995616670606  1.0000
  Ba  Ba2       1.0  0.7499999968503047  0.7500000152341608  0.749999997418991  1.0000
  V   V1        1.0  3.215870806464694e-09  0.999999967060997  1.2243989361146876e-07  1.0000
  F   F1        1.0  0.2415004355635001  0.24150039767733653  0.7584995836034749  1.0000
  F   F2        1.0  0.7584995955081631  0.7584995711676855  0.24150040536464143  1.0000
  F   F3        1.0  0.7584995428341738  0.24150043714563013  0.241500454714331  1.0000
  F   F4        1.0  0.24150046631855618  0.758499527582016  0.7584995287819147  1.0000
  F   F5        1.0  0.24150041201490066  0.7584995914023192  0.2415004121530261  1.0000
  F   F6        1.0  0.7584995241251211  0.24150047008364833  0.7584995258521855  1.0000
