data_image0
_chemical_formula_structural       Ba2YF6
_chemical_formula_sum              "Ba2 Y1 F6"
_cell_length_a       6.318931362864325
_cell_length_b       6.318930231925688
_cell_length_c       6.318930836826055
_cell_angle_alpha    59.999997668417606
_cell_angle_beta     60.000003154181265
_cell_angle_gamma    60.00000060427797

_space_group_name_H-M_alt    "P 1"
_space_group_IT_number       1

loop_
  _space_group_symop_operation_xyz
  'x, y, z'

loop_
  _atom_site_type_symbol
  _atom_site_label
  _atom_site_symmetry_multiplicity
  _atom_site_fract_x
  _atom_site_fract_y
  _atom_site_fract_z
  _atom_site_occupancy
  Ba  Ba1       1.0  0.25000004380858315  0.2500000052732102  0.2499999289855336  1.0000
  Ba  Ba2       1.0  0.7499999751019414  0.7500000681514456  0.7499999655562934  1.0000
  Y   Y1        1.0  0.9999999963452665  0.9999999999999996  0.9999999638462581  1.0000
  F   F1        1.0  0.24203235727841474  0.24203229913785704  0.7579676666412479  1.0000
  F   F2        1.0  0.7579676518334554  0.7579676172913351  0.2420323777645774  1.0000
  F   F3        1.0  0.7579676566969935  0.24203232943071595  0.24203235310741208  1.0000
  F   F4        1.0  0.24203234442129823  0.7579676548360218  0.7579676661240689  1.0000
  F   F5        1.0  0.24203233089716633  0.7579676836820124  0.24203234690692854  1.0000
  F   F6        1.0  0.757967644194597  0.2420323238433115  0.7579676863688932  1.0000
