data_image0
_chemical_formula_structural       Ba2YI6
_chemical_formula_sum              "Ba2 Y1 I6"
_cell_length_a       8.223794376114071
_cell_length_b       8.223794345379277
_cell_length_c       8.223794312452165
_cell_angle_alpha    59.99999984368315
_cell_angle_beta     59.99999933036837
_cell_angle_gamma    59.999998942433365

_space_group_name_H-M_alt    "P 1"
_space_group_IT_number       1

loop_
  _space_group_symop_operation_xyz
  'x, y, z'

loop_
  _atom_site_type_symbol
  _atom_site_label
  _atom_site_symmetry_multiplicity
  _atom_site_fract_x
  _atom_site_fract_y
  _atom_site_fract_z
  _atom_site_occupancy
  Ba  Ba1       1.0  0.24999999797186018  0.249999930236318  0.2500000206844016  1.0000
  Ba  Ba2       1.0  0.750000005498645  0.7500000423955542  0.7499999267704206  1.0000
  Y   Y1        1.0  1.2722046692165933e-08  0.9999999955321904  0.9999999581773861  1.0000
  I   I1        1.0  0.2569036493805517  0.25690362225174246  0.7430963663916536  1.0000
  I   I2        1.0  0.743096345480411  0.7430963846333358  0.25690367767987177  1.0000
  I   I3        1.0  0.7430963811396293  0.2569035954158316  0.25690362654286397  1.0000
  I   I4        1.0  0.25690358430585436  0.7430964323190246  0.743096426675447  1.0000
  I   I5        1.0  0.25690360798246165  0.7430963875317735  0.2569036011641071  1.0000
  I   I6        1.0  0.7430964147195375  0.256903607439146  0.7430964033284023  1.0000
