data_image0
_chemical_formula_structural       Ba2YCl6
_chemical_formula_sum              "Ba2 Y1 Cl6"
_cell_length_a       7.269930254494611
_cell_length_b       7.269930169165285
_cell_length_c       7.2699301739934645
_cell_angle_alpha    60.000001549439624
_cell_angle_beta     60.00000080468864
_cell_angle_gamma    59.999999939336554

_space_group_name_H-M_alt    "P 1"
_space_group_IT_number       1

loop_
  _space_group_symop_operation_xyz
  'x, y, z'

loop_
  _atom_site_type_symbol
  _atom_site_label
  _atom_site_symmetry_multiplicity
  _atom_site_fract_x
  _atom_site_fract_y
  _atom_site_fract_z
  _atom_site_occupancy
  Ba  Ba1       1.0  0.2500000243646155  0.24999998402881607  0.25000001652000414  1.0000
  Ba  Ba2       1.0  0.7499999815463  0.7500000885448881  0.7499999349441221  1.0000
  Y   Y1        1.0  0.999999975164903  0.9999999696759018  0.9999999904403134  1.0000
  Cl  Cl1       1.0  0.2550938155878815  0.2550937144161074  0.7449062231925061  1.0000
  Cl  Cl2       1.0  0.7449062145828808  0.7449062520232536  0.2550937485759317  1.0000
  Cl  Cl3       1.0  0.7449062454912602  0.2550937381625346  0.2550937722925223  1.0000
  Cl  Cl4       1.0  0.2550936891708297  0.744906267024287  0.7449063021350892  1.0000
  Cl  Cl5       1.0  0.25509376691141195  0.7449062607949051  0.2550937338274812  1.0000
  Cl  Cl6       1.0  0.7449062915601397  0.2550937208065054  0.7449062643530535  1.0000
