data_image0
_chemical_formula_structural       Ba2YBr6
_chemical_formula_sum              "Ba2 Y1 Br6"
_cell_length_a       7.640206265128139
_cell_length_b       7.640206425107657
_cell_length_c       7.640206015110761
_cell_angle_alpha    60.00000272556754
_cell_angle_beta     59.99999983383106
_cell_angle_gamma    59.99999880155788

_space_group_name_H-M_alt    "P 1"
_space_group_IT_number       1

loop_
  _space_group_symop_operation_xyz
  'x, y, z'

loop_
  _atom_site_type_symbol
  _atom_site_label
  _atom_site_symmetry_multiplicity
  _atom_site_fract_x
  _atom_site_fract_y
  _atom_site_fract_z
  _atom_site_occupancy
  Ba  Ba1       1.0  0.2500001190721899  0.24999996567345725  0.24999990502900885  1.0000
  Ba  Ba2       1.0  0.749999883719479  0.7500000525138986  0.7500001057579595  1.0000
  Y   Y1        1.0  0.9999999181122124  1.4427230538992541e-08  0.9999997222203547  1.0000
  Br  Br1       1.0  0.25615622735001464  0.25615612149902073  0.7438438544330507  1.0000
  Br  Br2       1.0  0.7438438263245817  0.7438438437884809  0.25615618484855013  1.0000
  Br  Br3       1.0  0.7438437928982541  0.2561562204237439  0.2561561596780507  1.0000
  Br  Br4       1.0  0.25615610740985784  0.7438439147845046  0.7438439524760658  1.0000
  Br  Br5       1.0  0.2561562167618038  0.7438438046353641  0.2561561480392069  1.0000
  Br  Br6       1.0  0.743843915382416  0.2561560612645331  0.7438439841598922  1.0000
