data_image0
_chemical_formula_structural       Ba2ZnCl6
_chemical_formula_sum              "Ba2 Zn1 Cl6"
_cell_length_a       6.919118119153042
_cell_length_b       6.91911806792693
_cell_length_c       6.919118005377926
_cell_angle_alpha    60.00000094474772
_cell_angle_beta     60.00000024658846
_cell_angle_gamma    60.000000660351795

_space_group_name_H-M_alt    "P 1"
_space_group_IT_number       1

loop_
  _space_group_symop_operation_xyz
  'x, y, z'

loop_
  _atom_site_type_symbol
  _atom_site_label
  _atom_site_symmetry_multiplicity
  _atom_site_fract_x
  _atom_site_fract_y
  _atom_site_fract_z
  _atom_site_occupancy
  Ba  Ba1       1.0  0.24999994979125578  0.25000002335995725  0.250000031037171  1.0000
  Ba  Ba2       1.0  0.7500000193280233  0.7500000258276692  0.7499999623327528  1.0000
  Zn  Zn1       1.0  0.99999995905375  1.770088067555922e-08  0.9999999827172665  1.0000
  Cl  Cl1       1.0  0.24699031213896788  0.24699038040019158  0.7530096521581247  1.0000
  Cl  Cl2       1.0  0.7530096959887446  0.7530096068343513  0.24699033967668566  1.0000
  Cl  Cl3       1.0  0.7530096329097639  0.24699036564818544  0.24699032847862346  1.0000
  Cl  Cl4       1.0  0.24699036372106045  0.7530096410573267  0.7530096810482101  1.0000
  Cl  Cl5       1.0  0.246990368735287  0.7530096155436748  0.24699034500571243  1.0000
  Cl  Cl6       1.0  0.7530096952745067  0.2469903292087539  0.7530096748156159  1.0000
