data_image0
_chemical_formula_structural       Ba2ZnF6
_chemical_formula_sum              "Ba2 Zn1 F6"
_cell_length_a       5.840596253665358
_cell_length_b       5.840596364871298
_cell_length_c       5.840596251535756
_cell_angle_alpha    60.00000054726238
_cell_angle_beta     59.999999818062456
_cell_angle_gamma    60.00000067730138

_space_group_name_H-M_alt    "P 1"
_space_group_IT_number       1

loop_
  _space_group_symop_operation_xyz
  'x, y, z'

loop_
  _atom_site_type_symbol
  _atom_site_label
  _atom_site_symmetry_multiplicity
  _atom_site_fract_x
  _atom_site_fract_y
  _atom_site_fract_z
  _atom_site_occupancy
  Ba  Ba1       1.0  0.24999997969547644  0.25000003127214787  0.2500000203777483  1.0000
  Ba  Ba2       1.0  0.7500000173108995  0.7499999659023886  0.7500000637200362  1.0000
  Zn  Zn1       1.0  1.977025085485165e-09  0.0  7.572257253770139e-09  1.0000
  F   F1        1.0  0.24380483308750805  0.24380486612800845  0.7561951341880718  1.0000
  F   F2        1.0  0.7561951609036549  0.756195116367866  0.24380485602741245  1.0000
  F   F3        1.0  0.7561951498265859  0.24380488577926868  0.24380485509232652  1.0000
  F   F4        1.0  0.24380485612607858  0.7561951260739299  0.756195111039437  1.0000
  F   F5        1.0  0.24380484578659667  0.7561951304419544  0.24380488345357074  1.0000
  F   F6        1.0  0.7561951510998529  0.2438048730234372  0.7561950725715102  1.0000
