data_image0
_chemical_formula_structural       Ba2ZnI6
_chemical_formula_sum              "Ba2 Zn1 I6"
_cell_length_a       7.9327543779532
_cell_length_b       7.932754528391171
_cell_length_c       7.932754373518636
_cell_angle_alpha    60.000000450762826
_cell_angle_beta     60.0000014925936
_cell_angle_gamma    59.99999766060748

_space_group_name_H-M_alt    "P 1"
_space_group_IT_number       1

loop_
  _space_group_symop_operation_xyz
  'x, y, z'

loop_
  _atom_site_type_symbol
  _atom_site_label
  _atom_site_symmetry_multiplicity
  _atom_site_fract_x
  _atom_site_fract_y
  _atom_site_fract_z
  _atom_site_occupancy
  Ba  Ba1       1.0  0.24999998034696921  0.2500000741105112  0.24999984071257553  1.0000
  Ba  Ba2       1.0  0.7500000170607927  0.7499999506035943  0.7500001368361959  1.0000
  Zn  Zn1       1.0  0.9999999967507374  0.9999999922804564  2.187215365491201e-08  1.0000
  I   I1        1.0  0.2503829387880879  0.2503829008970946  0.749617102303682  1.0000
  I   I2        1.0  0.749617077469471  0.7496171022022883  0.25038289679709164  1.0000
  I   I3        1.0  0.7496170836415045  0.2503828990364369  0.25038290255101925  1.0000
  I   I4        1.0  0.25038291276728525  0.7496170762725899  0.7496171001997773  1.0000
  I   I5        1.0  0.25038292253817573  0.7496171033160046  0.2503828847499934  1.0000
  I   I6        1.0  0.7496170688856967  0.2503829044151051  0.749617113106394  1.0000
