data_image0
_chemical_formula_structural       Ba2ZnBr6
_chemical_formula_sum              "Ba2 Zn1 Br6"
_cell_length_a       7.305930970169551
_cell_length_b       7.305931067374122
_cell_length_c       7.305931035748168
_cell_angle_alpha    59.999999549634445
_cell_angle_beta     59.99999904612695
_cell_angle_gamma    59.99999960066261

_space_group_name_H-M_alt    "P 1"
_space_group_IT_number       1

loop_
  _space_group_symop_operation_xyz
  'x, y, z'

loop_
  _atom_site_type_symbol
  _atom_site_label
  _atom_site_symmetry_multiplicity
  _atom_site_fract_x
  _atom_site_fract_y
  _atom_site_fract_z
  _atom_site_occupancy
  Ba  Ba1       1.0  0.2499999960744683  0.24999999727995567  0.2500000190448567  1.0000
  Ba  Ba2       1.0  0.7499999829231228  0.7499999935162381  0.7499999754527182  1.0000
  Zn  Zn1       1.0  8.19010736535903e-09  0.999999984912664  0.9999999514360786  1.0000
  Br  Br1       1.0  0.2502020444905957  0.250202081643725  0.7497979283064667  1.0000
  Br  Br2       1.0  0.7497979701708757  0.7497979728545553  0.25020200692686745  1.0000
  Br  Br3       1.0  0.7497979064298818  0.25020207801943345  0.2502021008123933  1.0000
  Br  Br4       1.0  0.2502020201866472  0.7497979798315881  0.7497979438358382  1.0000
  Br  Br5       1.0  0.2502020724697222  0.7497979182509447  0.25020208422853196  1.0000
  Br  Br6       1.0  0.7497979969367429  0.25020200046130864  0.7497979750191268  1.0000
