data_image0
_chemical_formula_structural       Be2CI6
_chemical_formula_sum              "Be2 C1 I6"
_cell_length_a       7.312874912748863
_cell_length_b       7.312874946696802
_cell_length_c       7.312875107837571
_cell_angle_alpha    59.999999695603876
_cell_angle_beta     59.9999993510144
_cell_angle_gamma    60.00000080317113

_space_group_name_H-M_alt    "P 1"
_space_group_IT_number       1

loop_
  _space_group_symop_operation_xyz
  'x, y, z'

loop_
  _atom_site_type_symbol
  _atom_site_label
  _atom_site_symmetry_multiplicity
  _atom_site_fract_x
  _atom_site_fract_y
  _atom_site_fract_z
  _atom_site_occupancy
  Be  Be1       1.0  0.2500000395766462  0.24999989419539773  0.2500000721099825  1.0000
  Be  Be2       1.0  0.7499999198336345  0.7500000661105599  0.7500000406013926  1.0000
  C   C1        1.0  0.9999999919463186  0.9999999531061906  4.6618062288408704e-08  1.0000
  I   I1        1.0  0.25551826261237276  0.25551825754281976  0.7444817428562441  1.0000
  I   I2        1.0  0.7444817272749389  0.744481843444566  0.2555181994939261  1.0000
  I   I3        1.0  0.7444817413490582  0.2555182888480013  0.255518200942226  1.0000
  I   I4        1.0  0.2555182821131793  0.7444817350995552  0.7444817576705905  1.0000
  I   I5        1.0  0.255518275957771  0.7444816980074879  0.25551823523383804  1.0000
  I   I6        1.0  0.7444817616689543  0.2555182455506812  0.7444817099980869  1.0000
