data_image0
_chemical_formula_structural       Be2CBr6
_chemical_formula_sum              "Be2 C1 Br6"
_cell_length_a       6.8457205091344
_cell_length_b       6.845720568563307
_cell_length_c       6.845720931527775
_cell_angle_alpha    60.00000357115091
_cell_angle_beta     59.99999881828685
_cell_angle_gamma    60.000000543699535

_space_group_name_H-M_alt    "P 1"
_space_group_IT_number       1

loop_
  _space_group_symop_operation_xyz
  'x, y, z'

loop_
  _atom_site_type_symbol
  _atom_site_label
  _atom_site_symmetry_multiplicity
  _atom_site_fract_x
  _atom_site_fract_y
  _atom_site_fract_z
  _atom_site_occupancy
  Be  Be1       1.0  0.24999956731764506  0.25000016054365887  0.24999973789744795  1.0000
  Be  Be2       1.0  0.7499998900083605  0.7500001560209344  0.7499996194888676  1.0000
  C   C1        1.0  0.999997700979001  2.034168312592437e-06  0.99999756147732  1.0000
  Br  Br1       1.0  0.2449307705871992  0.24493047968084872  0.7550696592538975  1.0000
  Br  Br2       1.0  0.7550698158488303  0.7550691820855246  0.24493078735250493  1.0000
  Br  Br3       1.0  0.7550696693339045  0.24493032763651756  0.24493098571006003  1.0000
  Br  Br4       1.0  0.2449307898125827  0.7550693162392087  0.7550697876598116  1.0000
  Br  Br5       1.0  0.24493145565854701  0.7550687020759898  0.24493144696008437  1.0000
  Br  Br6       1.0  0.755070352363735  0.2449296125234903  0.7550704092633315  1.0000
