data_image0
_chemical_formula_structural       Br2CrF6
_chemical_formula_sum              "Br2 Cr1 F6"
_cell_length_a       11.157615561902166
_cell_length_b       11.15760805591253
_cell_length_c       11.157587060874707
_cell_angle_alpha    59.999982454553134
_cell_angle_beta     59.99997841019508
_cell_angle_gamma    59.99977745674267

_space_group_name_H-M_alt    "P 1"
_space_group_IT_number       1

loop_
  _space_group_symop_operation_xyz
  'x, y, z'

loop_
  _atom_site_type_symbol
  _atom_site_label
  _atom_site_symmetry_multiplicity
  _atom_site_fract_x
  _atom_site_fract_y
  _atom_site_fract_z
  _atom_site_occupancy
  Br  Br1       1.0  0.250052996272413  0.2499792872362747  0.24999647842923534  1.0000
  Br  Br2       1.0  0.7500544965636745  0.7499786154492587  0.7499954854009497  1.0000
  Cr  Cr1       1.0  0.9999872360440203  7.011995925626592e-06  2.9414123648096986e-06  1.0000
  F   F1        1.0  0.11387988273514912  0.11389777882947844  0.8861093394392233  1.0000
  F   F2        1.0  0.8860902749367823  0.8861196776065133  0.11388664383308271  1.0000
  F   F3        1.0  0.8860911496374553  0.11389639329436896  0.1138966942460966  1.0000
  F   F4        1.0  0.11386877599947089  0.886118293722445  0.8861070507885129  1.0000
  F   F5        1.0  0.113880128864351  0.8861174916499772  0.11389350463514117  1.0000
  F   F6        1.0  0.8860949257928037  0.11388553469754968  0.8861116825329004  1.0000
