data_image0
_chemical_formula_structural       Br2CrCl6
_chemical_formula_sum              "Br2 Cr1 Cl6"
_cell_length_a       6.969029682590385
_cell_length_b       6.969029720693399
_cell_length_c       6.969030008187679
_cell_angle_alpha    59.99999929804279
_cell_angle_beta     60.00000125545665
_cell_angle_gamma    60.000000390985974

_space_group_name_H-M_alt    "P 1"
_space_group_IT_number       1

loop_
  _space_group_symop_operation_xyz
  'x, y, z'

loop_
  _atom_site_type_symbol
  _atom_site_label
  _atom_site_symmetry_multiplicity
  _atom_site_fract_x
  _atom_site_fract_y
  _atom_site_fract_z
  _atom_site_occupancy
  Br  Br1       1.0  0.2500001805435131  0.25000009204974305  0.24999989405370823  1.0000
  Br  Br2       1.0  0.7499999277093566  0.7500000898636705  0.7500000980486005  1.0000
  Cr  Cr1       1.0  0.9999999893062548  0.9999999525499054  1.2090679452423624e-07  1.0000
  Cl  Cl1       1.0  0.22952218862118548  0.22952211119476007  0.770477829096691  1.0000
  Cl  Cl2       1.0  0.7704778334096707  0.7704778422552364  0.22952216968173828  1.0000
  Cl  Cl3       1.0  0.7704777256086631  0.22952217273247005  0.22952220035389242  1.0000
  Cl  Cl4       1.0  0.22952214435467164  0.7704778193805656  0.770477813514097  1.0000
  Cl  Cl5       1.0  0.22952220172065746  0.7704778351015434  0.2295220448858314  1.0000
  Cl  Cl6       1.0  0.7704778187710443  0.22952208320023543  0.7704778373538107  1.0000
