data_image0
_chemical_formula_structural       Br2CoF6
_chemical_formula_sum              "Br2 Co1 F6"
_cell_length_a       6.138942240668291
_cell_length_b       6.138942968204847
_cell_length_c       6.138941501971603
_cell_angle_alpha    60.00000543127164
_cell_angle_beta     60.00000148645641
_cell_angle_gamma    59.99999996979782

_space_group_name_H-M_alt    "P 1"
_space_group_IT_number       1

loop_
  _space_group_symop_operation_xyz
  'x, y, z'

loop_
  _atom_site_type_symbol
  _atom_site_label
  _atom_site_symmetry_multiplicity
  _atom_site_fract_x
  _atom_site_fract_y
  _atom_site_fract_z
  _atom_site_occupancy
  Br  Br1       1.0  0.2499998598330519  0.250000218887965  0.2499998175273843  1.0000
  Br  Br2       1.0  0.7499996902175556  0.7500001439381276  0.7500002025404151  1.0000
  Co  Co1       1.0  4.7499564182123865e-08  0.9999999421437835  3.938617793950771e-08  1.0000
  F   F1        1.0  0.2120899875981149  0.21208975449585885  0.7879101109022558  1.0000
  F   F2        1.0  0.7879101397394903  0.7879101235350351  0.21208990201432987  1.0000
  F   F3        1.0  0.7879101047253773  0.21208988710971063  0.21208992269903895  1.0000
  F   F4        1.0  0.21209005663868588  0.7879100806980651  0.7879099729317337  1.0000
  F   F5        1.0  0.21208991444889883  0.7879100315403677  0.21209000599945663  1.0000
  F   F6        1.0  0.7879102673415552  0.2120898185599381  0.7879099692218186  1.0000
