data_image0
_chemical_formula_structural       Br2CCl6
_chemical_formula_sum              "Br2 C1 Cl6"
_cell_length_a       11.250771540354927
_cell_length_b       11.25060553260853
_cell_length_c       11.250761924896949
_cell_angle_alpha    60.0004074263713
_cell_angle_beta     60.00023765156621
_cell_angle_gamma    59.9998950194175

_space_group_name_H-M_alt    "P 1"
_space_group_IT_number       1

loop_
  _space_group_symop_operation_xyz
  'x, y, z'

loop_
  _atom_site_type_symbol
  _atom_site_label
  _atom_site_symmetry_multiplicity
  _atom_site_fract_x
  _atom_site_fract_y
  _atom_site_fract_z
  _atom_site_occupancy
  Br  Br1       1.0  0.24968434853896407  0.2509503367218848  0.2496784546105012  1.0000
  Br  Br2       1.0  0.7496425000454218  0.7510779078036383  0.7496352823397628  1.0000
  C   C1        1.0  0.010914261158478593  0.9672833890617704  0.010859613441750465  1.0000
  Cl  Cl1       1.0  0.12901964879747396  0.13174086642830002  0.8695953241121395  1.0000
  Cl  Cl2       1.0  0.8736665122991463  0.8784640301972761  0.12396136158581549  1.0000
  Cl  Cl3       1.0  0.8695768926520974  0.1317854449294399  0.12901413583744625  1.0000
  Cl  Cl4       1.0  0.1239717558520679  0.8783809398597251  0.8736717322492714  1.0000
  Cl  Cl5       1.0  0.12388839018437449  0.8785315538094032  0.1239461470724736  1.0000
  Cl  Cl6       1.0  0.8696359708570528  0.13178530610411324  0.8696379362912712  1.0000
