data_image0
_chemical_formula_structural       Br2FeF6
_chemical_formula_sum              "Br2 Fe1 F6"
_cell_length_a       6.150194412832925
_cell_length_b       6.15019650921033
_cell_length_c       6.150198644471766
_cell_angle_alpha    59.9999810194482
_cell_angle_beta     59.99999076795089
_cell_angle_gamma    59.99999304600477

_space_group_name_H-M_alt    "P 1"
_space_group_IT_number       1

loop_
  _space_group_symop_operation_xyz
  'x, y, z'

loop_
  _atom_site_type_symbol
  _atom_site_label
  _atom_site_symmetry_multiplicity
  _atom_site_fract_x
  _atom_site_fract_y
  _atom_site_fract_z
  _atom_site_occupancy
  Br  Br1       1.0  0.24999722012081213  0.2500059443142722  0.24999869384844053  1.0000
  Br  Br2       1.0  0.7500010758808918  0.7500058587038432  0.7499977251230997  1.0000
  Fe  Fe1       1.0  3.556099788314627e-07  0.9999986797072502  4.4657029431130553e-07  1.0000
  F   F1        1.0  0.22774044929914053  0.2277380402123337  0.7722608169313506  1.0000
  F   F2        1.0  0.7722617375742228  0.7722589866789389  0.2277394739880415  1.0000
  F   F3        1.0  0.7722607760147728  0.22773715755193488  0.2277410030921535  1.0000
  F   F4        1.0  0.22773921660514407  0.7722589214367919  0.7722615857108568  1.0000
  F   F5        1.0  0.22773898368691262  0.7722590313880652  0.22773982056838263  1.0000
  F   F6        1.0  0.7722601936894297  0.22773756138009277  0.772260432868026  1.0000
