data_image0
_chemical_formula_structural       Br2GeCl6
_chemical_formula_sum              "Br2 Ge1 Cl6"
_cell_length_a       11.163161432709943
_cell_length_b       11.163161118536895
_cell_length_c       11.163160137098137
_cell_angle_alpha    60.00000413119525
_cell_angle_beta     60.000006620083056
_cell_angle_gamma    60.00000207341853

_space_group_name_H-M_alt    "P 1"
_space_group_IT_number       1

loop_
  _space_group_symop_operation_xyz
  'x, y, z'

loop_
  _atom_site_type_symbol
  _atom_site_label
  _atom_site_symmetry_multiplicity
  _atom_site_fract_x
  _atom_site_fract_y
  _atom_site_fract_z
  _atom_site_occupancy
  Br  Br1       1.0  0.2500001819757734  0.2500002658715574  0.24999961267231374  1.0000
  Br  Br2       1.0  0.7500003179185715  0.7499998804132947  0.7499999373545586  1.0000
  Ge  Ge1       1.0  0.9999999215230138  0.9999999747659915  1.0470791296514206e-07  1.0000
  Cl  Cl1       1.0  0.1432245903678086  0.14322459871475463  0.8567754539467399  1.0000
  Cl  Cl2       1.0  0.8567751225174888  0.8567754850336456  0.1432246794101169  1.0000
  Cl  Cl3       1.0  0.856775260494191  0.14322462533529023  0.14322476026919304  1.0000
  Cl  Cl4       1.0  0.14322457220597376  0.8567752324041569  0.8567754763497138  1.0000
  Cl  Cl5       1.0  0.1432245084250979  0.8567753079063452  0.14322475705544765  1.0000
  Cl  Cl6       1.0  0.8567754205749605  0.14322468916871717  0.8567752148339034  1.0000
