data_image0
_chemical_formula_structural       Br2GeF6
_chemical_formula_sum              "Br2 Ge1 F6"
_cell_length_a       5.216793421534838
_cell_length_b       5.216793362829987
_cell_length_c       5.2167934016916915
_cell_angle_alpha    60.00000029036662
_cell_angle_beta     60.00000030640369
_cell_angle_gamma    60.00000053519555

_space_group_name_H-M_alt    "P 1"
_space_group_IT_number       1

loop_
  _space_group_symop_operation_xyz
  'x, y, z'

loop_
  _atom_site_type_symbol
  _atom_site_label
  _atom_site_symmetry_multiplicity
  _atom_site_fract_x
  _atom_site_fract_y
  _atom_site_fract_z
  _atom_site_occupancy
  Br  Br1       1.0  0.25000000875705075  0.24999996198999988  0.25000001198593796  1.0000
  Br  Br2       1.0  0.7500000086519089  0.7499999587485976  0.7499999547053194  1.0000
  Ge  Ge1       1.0  0.999999986719422  0.0  1.8141607019023505e-08  1.0000
  F   F1        1.0  0.24917343302787856  0.24917343223124833  0.7508265683970525  1.0000
  F   F2        1.0  0.7508265779402163  0.7508265941537021  0.24917341961625583  1.0000
  F   F3        1.0  0.7508266116765577  0.24917345264364887  0.24917341016012784  1.0000
  F   F4        1.0  0.24917339562420712  0.750826611304449  0.7508265743234763  1.0000
  F   F5        1.0  0.24917341736936494  0.750826589812537  0.24917342857844374  1.0000
  F   F6        1.0  0.7508265657640135  0.24917338727078214  0.7508266229225605  1.0000
