data_image0
_chemical_formula_structural       Br2HfF6
_chemical_formula_sum              "Br2 Hf1 F6"
_cell_length_a       5.315074244278314
_cell_length_b       5.315074156198354
_cell_length_c       5.315074693477509
_cell_angle_alpha    59.99999859480688
_cell_angle_beta     59.999998999223415
_cell_angle_gamma    59.99999838284991

_space_group_name_H-M_alt    "P 1"
_space_group_IT_number       1

loop_
  _space_group_symop_operation_xyz
  'x, y, z'

loop_
  _atom_site_type_symbol
  _atom_site_label
  _atom_site_symmetry_multiplicity
  _atom_site_fract_x
  _atom_site_fract_y
  _atom_site_fract_z
  _atom_site_occupancy
  Br  Br1       1.0  0.2499999680663306  0.24999995812456655  0.25000003892803996  1.0000
  Br  Br2       1.0  0.7499999856319309  0.7500000471951198  0.749999955791004  1.0000
  Hf  Hf1       1.0  0.9999999790430829  0.9999999976957149  3.985221731657356e-08  1.0000
  F   F1        1.0  0.26069129490244447  0.26069138777438644  0.7393086484302474  1.0000
  F   F2        1.0  0.7393086638863043  0.7393086544138705  0.26069137234529594  1.0000
  F   F3        1.0  0.7393086989473341  0.26069130552669534  0.2606913100726827  1.0000
  F   F4        1.0  0.2606913745246771  0.7393086467944215  0.7393086738360651  1.0000
  F   F5        1.0  0.26069132815548024  0.7393086556518222  0.2606913077560022  1.0000
  F   F6        1.0  0.7393087188511624  0.2606913174078652  0.7393086696089392  1.0000
