data_image0
_chemical_formula_structural       Br2HfCl6
_chemical_formula_sum              "Br2 Hf1 Cl6"
_cell_length_a       11.288673069705574
_cell_length_b       11.288674024424225
_cell_length_c       11.288672837014797
_cell_angle_alpha    60.000008009019126
_cell_angle_beta     59.99999926396481
_cell_angle_gamma    60.00000493070005

_space_group_name_H-M_alt    "P 1"
_space_group_IT_number       1

loop_
  _space_group_symop_operation_xyz
  'x, y, z'

loop_
  _atom_site_type_symbol
  _atom_site_label
  _atom_site_symmetry_multiplicity
  _atom_site_fract_x
  _atom_site_fract_y
  _atom_site_fract_z
  _atom_site_occupancy
  Br  Br1       1.0  0.25000024078296174  0.2499999613212044  0.24999957719692678  1.0000
  Br  Br2       1.0  0.7500000873150856  0.7499997852348113  0.7499997699416282  1.0000
  Hf  Hf1       1.0  0.9999999138082414  4.990689245995165e-08  1.0052590218862138e-07  1.0000
  Cl  Cl1       1.0  0.15505526749537857  0.15505528624234632  0.844944575562566  1.0000
  Cl  Cl2       1.0  0.8449447440207598  0.8449447196125276  0.15505530692013755  1.0000
  Cl  Cl3       1.0  0.8449447855700323  0.15505520318893962  0.15505551785583277  1.0000
  Cl  Cl4       1.0  0.15505516648588785  0.844944720211099  0.844944823583947  1.0000
  Cl  Cl5       1.0  0.15505526593079336  0.8449448687839437  0.15505528365862797  1.0000
  Cl  Cl6       1.0  0.8449444561550433  0.1550554744849089  0.8449449477724599  1.0000
