data_image0
_chemical_formula_structural       Br2IrCl6
_chemical_formula_sum              "Br2 Ir1 Cl6"
_cell_length_a       7.036295735623779
_cell_length_b       7.03629583686608
_cell_length_c       7.036295897030346
_cell_angle_alpha    59.99999734079333
_cell_angle_beta     59.99999658694
_cell_angle_gamma    59.99999949193053

_space_group_name_H-M_alt    "P 1"
_space_group_IT_number       1

loop_
  _space_group_symop_operation_xyz
  'x, y, z'

loop_
  _atom_site_type_symbol
  _atom_site_label
  _atom_site_symmetry_multiplicity
  _atom_site_fract_x
  _atom_site_fract_y
  _atom_site_fract_z
  _atom_site_occupancy
  Br  Br1       1.0  0.2499998379721256  0.25000002701011  0.2500000539516243  1.0000
  Br  Br2       1.0  0.7500000241903997  0.7499999139317485  0.7500000044791678  1.0000
  Ir  Ir1       1.0  2.285825854563032e-08  3.481220639002072e-08  0.9999999569527434  1.0000
  Cl  Cl1       1.0  0.22804391131091528  0.22804381556771636  0.771956085676729  1.0000
  Cl  Cl2       1.0  0.7719561026087195  0.7719561131898727  0.22804385464676155  1.0000
  Cl  Cl3       1.0  0.7719560869655228  0.2280439978516589  0.22804389678786974  1.0000
  Cl  Cl4       1.0  0.22804385073128916  0.7719561989599116  0.7719561067946974  1.0000
  Cl  Cl5       1.0  0.22804401733761087  0.7719560480209186  0.22804393324110686  1.0000
  Cl  Cl6       1.0  0.7719562045334645  0.22804384766507466  0.771956097292747  1.0000
