data_image0
_chemical_formula_structural       Br2IrF6
_chemical_formula_sum              "Br2 Ir1 F6"
_cell_length_a       6.337513161874505
_cell_length_b       6.33751313165165
_cell_length_c       6.3375125683348354
_cell_angle_alpha    60.000002207773505
_cell_angle_beta     60.000003679711945
_cell_angle_gamma    60.00000171177956

_space_group_name_H-M_alt    "P 1"
_space_group_IT_number       1

loop_
  _space_group_symop_operation_xyz
  'x, y, z'

loop_
  _atom_site_type_symbol
  _atom_site_label
  _atom_site_symmetry_multiplicity
  _atom_site_fract_x
  _atom_site_fract_y
  _atom_site_fract_z
  _atom_site_occupancy
  Br  Br1       1.0  0.25000002198519367  0.24999998010296473  0.24999994752019314  1.0000
  Br  Br2       1.0  0.7500000040419544  0.7500000659234873  0.7500000521297348  1.0000
  Ir  Ir1       1.0  0.9999999896931605  3.092051682576503e-08  0.999999899752511  1.0000
  F   F1        1.0  0.2086567294459805  0.20865672698325696  0.791343257608978  1.0000
  F   F2        1.0  0.7913432841776382  0.7913432687973574  0.2086567134052002  1.0000
  F   F3        1.0  0.7913432359799457  0.20865679430198358  0.20865673090853237  1.0000
  F   F4        1.0  0.2086567582457536  0.7913431995460982  0.7913433028417743  1.0000
  F   F5        1.0  0.20865672726376366  0.7913432385186726  0.20865672265713156  1.0000
  F   F6        1.0  0.7913432489818574  0.20865671088116738  0.7913433470410539  1.0000
