data_image0
_chemical_formula_structural       Br2MoCl6
_chemical_formula_sum              "Br2 Mo1 Cl6"
_cell_length_a       11.292029586717343
_cell_length_b       11.292025244835402
_cell_length_c       11.292024316773846
_cell_angle_alpha    60.00002649489196
_cell_angle_beta     60.00000372800821
_cell_angle_gamma    60.0000185110594

_space_group_name_H-M_alt    "P 1"
_space_group_IT_number       1

loop_
  _space_group_symop_operation_xyz
  'x, y, z'

loop_
  _atom_site_type_symbol
  _atom_site_label
  _atom_site_symmetry_multiplicity
  _atom_site_fract_x
  _atom_site_fract_y
  _atom_site_fract_z
  _atom_site_occupancy
  Br  Br1       1.0  0.25000009691145114  0.24999952238514975  0.25000016458470975  1.0000
  Br  Br2       1.0  0.7499995101113487  0.7500005010154307  0.7500005069328745  1.0000
  Mo  Mo1       1.0  9.084483496713164e-08  0.9999999728847373  0.9999999034878021  1.0000
  Cl  Cl1       1.0  0.14545158106210251  0.14545165261064674  0.854548246164184  1.0000
  Cl  Cl2       1.0  0.8545485037450408  0.8545482688364255  0.145451555540701  1.0000
  Cl  Cl3       1.0  0.8545484199139548  0.14545152242292553  0.14545158089009094  1.0000
  Cl  Cl4       1.0  0.14545172047585161  0.854548290563162  0.8545483207571376  1.0000
  Cl  Cl5       1.0  0.14545161156957373  0.8545485431205585  0.1454514558875353  1.0000
  Cl  Cl6       1.0  0.8545486268726918  0.14545136531122205  0.8545483100450699  1.0000
