data_image0
_chemical_formula_structural       Br2MnCl6
_chemical_formula_sum              "Br2 Mn1 Cl6"
_cell_length_a       11.135548986932214
_cell_length_b       11.135549357561409
_cell_length_c       11.13554875858821
_cell_angle_alpha    60.00001509132499
_cell_angle_beta     60.000016835026344
_cell_angle_gamma    60.00002257004537

_space_group_name_H-M_alt    "P 1"
_space_group_IT_number       1

loop_
  _space_group_symop_operation_xyz
  'x, y, z'

loop_
  _atom_site_type_symbol
  _atom_site_label
  _atom_site_symmetry_multiplicity
  _atom_site_fract_x
  _atom_site_fract_y
  _atom_site_fract_z
  _atom_site_occupancy
  Br  Br1       1.0  0.25000016334964126  0.2500003469485614  0.24999983830877845  1.0000
  Br  Br2       1.0  0.750000446346601  0.7499993987679248  0.7499997893664481  1.0000
  Mn  Mn1       1.0  0.9999998799330887  4.289418084001038e-08  7.809945023383356e-08  1.0000
  Cl  Cl1       1.0  0.13885520086853054  0.1388554096966749  0.8611446476404236  1.0000
  Cl  Cl2       1.0  0.8611446007761112  0.8611446945711863  0.13885543827132552  1.0000
  Cl  Cl3       1.0  0.8611446703474199  0.13885532430430317  0.13885546374591498  1.0000
  Cl  Cl4       1.0  0.1388551474912724  0.8611447282705624  0.8611446875106229  1.0000
  Cl  Cl5       1.0  0.13885535382753272  0.8611447799528618  0.13885524305143399  1.0000
  Cl  Cl6       1.0  0.8611444687555925  0.13885529571887262  0.8611448377088876  1.0000
