data_image0
_chemical_formula_structural       Br2MnF6
_chemical_formula_sum              "Br2 Mn1 F6"
_cell_length_a       6.647854606687346
_cell_length_b       6.6478543114568565
_cell_length_c       6.647855493008276
_cell_angle_alpha    60.00000131488924
_cell_angle_beta     59.99999149528992
_cell_angle_gamma    59.99999305503794

_space_group_name_H-M_alt    "P 1"
_space_group_IT_number       1

loop_
  _space_group_symop_operation_xyz
  'x, y, z'

loop_
  _atom_site_type_symbol
  _atom_site_label
  _atom_site_symmetry_multiplicity
  _atom_site_fract_x
  _atom_site_fract_y
  _atom_site_fract_z
  _atom_site_occupancy
  Br  Br1       1.0  0.25000026174378587  0.24999877877482174  0.24999855016072817  1.0000
  Br  Br2       1.0  0.7500009466461984  0.7499983168145302  0.7499978512616017  1.0000
  Mn  Mn1       1.0  0.999999884232043  3.629363190563862e-07  3.8485048013610036e-07  1.0000
  F   F1        1.0  0.19193036479615913  0.19193148467292612  0.8080697878086275  1.0000
  F   F2        1.0  0.8080692034236383  0.8080694631999621  0.1919313500428897  1.0000
  F   F3        1.0  0.8080688450532622  0.1919312343227778  0.19193131290929888  1.0000
  F   F4        1.0  0.19193085626472986  0.8080695956418504  0.8080695661384105  1.0000
  F   F5        1.0  0.1919307037896552  0.808069738514041  0.19193129532483633  1.0000
  F   F6        1.0  0.8080689202775886  0.1919311043468197  0.8080697738458054  1.0000
