data_image0
_chemical_formula_structural       Br2MoF6
_chemical_formula_sum              "Br2 Mo1 F6"
_cell_length_a       5.289301944834365
_cell_length_b       5.289302053082764
_cell_length_c       5.289301919846653
_cell_angle_alpha    60.00000086085788
_cell_angle_beta     60.000000832958754
_cell_angle_gamma    60.00000135013706

_space_group_name_H-M_alt    "P 1"
_space_group_IT_number       1

loop_
  _space_group_symop_operation_xyz
  'x, y, z'

loop_
  _atom_site_type_symbol
  _atom_site_label
  _atom_site_symmetry_multiplicity
  _atom_site_fract_x
  _atom_site_fract_y
  _atom_site_fract_z
  _atom_site_occupancy
  Br  Br1       1.0  0.2499999663820352  0.25000002689210193  0.2500000255047557  1.0000
  Br  Br2       1.0  0.7500000020614782  0.7499999880557796  0.7500000259922365  1.0000
  Mo  Mo1       1.0  0.9999999883127282  2.3155131309812493e-09  0.999999995232836  1.0000
  F   F1        1.0  0.24617290224399896  0.24617285065003938  0.7538271400171054  1.0000
  F   F2        1.0  0.7538271317148385  0.7538271249341186  0.2461728568106964  1.0000
  F   F3        1.0  0.7538271067353484  0.24617290470686154  0.24617288069576296  1.0000
  F   F4        1.0  0.24617288585454597  0.7538271032944807  0.7538271054830488  1.0000
  F   F5        1.0  0.246172894714469  0.753827125273413  0.2461728871668716  1.0000
  F   F6        1.0  0.7538271419344403  0.24617286188831092  0.753827093074068  1.0000
