data_image0
_chemical_formula_structural       Br2NbF6
_chemical_formula_sum              "Br2 Nb1 F6"
_cell_length_a       5.335938497859305
_cell_length_b       5.335938474544348
_cell_length_c       5.335938497800176
_cell_angle_alpha    60.000000302963336
_cell_angle_beta     60.0000001081278
_cell_angle_gamma    60.00000007605419

_space_group_name_H-M_alt    "P 1"
_space_group_IT_number       1

loop_
  _space_group_symop_operation_xyz
  'x, y, z'

loop_
  _atom_site_type_symbol
  _atom_site_label
  _atom_site_symmetry_multiplicity
  _atom_site_fract_x
  _atom_site_fract_y
  _atom_site_fract_z
  _atom_site_occupancy
  Br  Br1       1.0  0.2500000269867591  0.24999999468791023  0.2499999847949532  1.0000
  Br  Br2       1.0  0.7499999857439931  0.749999984063731  0.7500000450969467  1.0000
  Nb  Nb1       1.0  0.9999999844581478  2.0657479009114542e-08  0.999999952464157  1.0000
  F   F1        1.0  0.2522821252179157  0.252282097605334  0.7477178806881971  1.0000
  F   F2        1.0  0.7477178813921019  0.747717899508511  0.2522820981049387  1.0000
  F   F3        1.0  0.7477178933761448  0.25228209862688694  0.25228209635265464  1.0000
  F   F4        1.0  0.2522820863694345  0.7477179076680599  0.7477179193934179  1.0000
  F   F5        1.0  0.2522821081100975  0.7477179122443424  0.2522820946921637  1.0000
  F   F6        1.0  0.7477179136479654  0.2522820848695025  0.7477178952677951  1.0000
