data_image0
_chemical_formula_structural       Br2NbCl6
_chemical_formula_sum              "Br2 Nb1 Cl6"
_cell_length_a       11.13021046870842
_cell_length_b       11.130209997172297
_cell_length_c       11.130210140232952
_cell_angle_alpha    59.999988983411576
_cell_angle_beta     59.9999906143452
_cell_angle_gamma    59.99998333275477

_space_group_name_H-M_alt    "P 1"
_space_group_IT_number       1

loop_
  _space_group_symop_operation_xyz
  'x, y, z'

loop_
  _atom_site_type_symbol
  _atom_site_label
  _atom_site_symmetry_multiplicity
  _atom_site_fract_x
  _atom_site_fract_y
  _atom_site_fract_z
  _atom_site_occupancy
  Br  Br1       1.0  0.25000025240840396  0.250000023836216  0.25000023556815876  1.0000
  Br  Br2       1.0  0.7499998047913738  0.749999747997414  0.7499997553090973  1.0000
  Nb  Nb1       1.0  0.9999999967293947  6.272160954929015e-08  0.9999999711729487  1.0000
  Cl  Cl1       1.0  0.15140668042233169  0.15140666875182823  0.8485932933299591  1.0000
  Cl  Cl2       1.0  0.8485932686471892  0.8485934056860573  0.1514067323832604  1.0000
  Cl  Cl3       1.0  0.8485934199857533  0.1514067620105346  0.1514065872335186  1.0000
  Cl  Cl4       1.0  0.15140678509231742  0.8485933069254237  0.8485933877981873  1.0000
  Cl  Cl5       1.0  0.15140656782885434  0.8485933523322382  0.1514067079573716  1.0000
  Cl  Cl6       1.0  0.8485933660997484  0.15140662747304517  0.848593374439528  1.0000
