data_image0
_chemical_formula_structural       Br2OsF6
_chemical_formula_sum              "Br2 Os1 F6"
_cell_length_a       6.363940425180475
_cell_length_b       6.363940705267855
_cell_length_c       6.363940761217478
_cell_angle_alpha    59.999999305932626
_cell_angle_beta     59.999999365503584
_cell_angle_gamma    60.000001853996984

_space_group_name_H-M_alt    "P 1"
_space_group_IT_number       1

loop_
  _space_group_symop_operation_xyz
  'x, y, z'

loop_
  _atom_site_type_symbol
  _atom_site_label
  _atom_site_symmetry_multiplicity
  _atom_site_fract_x
  _atom_site_fract_y
  _atom_site_fract_z
  _atom_site_occupancy
  Br  Br1       1.0  0.2499998005799776  0.249999893761669  0.2500002342120754  1.0000
  Br  Br2       1.0  0.7500000573197234  0.7499998102269917  0.7500001359551155  1.0000
  Os  Os1       1.0  7.87914860335558e-08  0.9999999595853539  0.9999999462418058  1.0000
  F   F1        1.0  0.2068754350802742  0.20687540408747154  0.7931245954754629  1.0000
  F   F2        1.0  0.7931245872323274  0.7931245905017559  0.2068753743361199  1.0000
  F   F3        1.0  0.7931245944431059  0.20687556918813463  0.20687531460993247  1.0000
  F   F4        1.0  0.20687536252744065  0.7931246486439082  0.7931245369674338  1.0000
  F   F5        1.0  0.20687536269205864  0.793124622995578  0.20687535601216728  1.0000
  F   F6        1.0  0.7931246850761547  0.20687546396998874  0.7931244480314082  1.0000
