data_image0
_chemical_formula_structural       Br2OsCl6
_chemical_formula_sum              "Br2 Os1 Cl6"
_cell_length_a       7.5204985391018715
_cell_length_b       7.520498809516644
_cell_length_c       7.520498860588689
_cell_angle_alpha    60.00000254024318
_cell_angle_beta     59.99999677088383
_cell_angle_gamma    60.000002235475115

_space_group_name_H-M_alt    "P 1"
_space_group_IT_number       1

loop_
  _space_group_symop_operation_xyz
  'x, y, z'

loop_
  _atom_site_type_symbol
  _atom_site_label
  _atom_site_symmetry_multiplicity
  _atom_site_fract_x
  _atom_site_fract_y
  _atom_site_fract_z
  _atom_site_occupancy
  Br  Br1       1.0  0.2499999033582134  0.25000000802418587  0.2500000793067935  1.0000
  Br  Br2       1.0  0.7499998968538468  0.7499998644754473  0.7500003386834426  1.0000
  Os  Os1       1.0  3.6570290830465025e-08  1.4656877360359949e-08  0.9999999464627362  1.0000
  Cl  Cl1       1.0  0.21291228901803405  0.21291247260643034  0.7870876272864056  1.0000
  Cl  Cl2       1.0  0.7870877514407572  0.7870877109447187  0.21291226374159464  1.0000
  Cl  Cl3       1.0  0.7870878070591601  0.21291227864371853  0.21291239708788187  1.0000
  Cl  Cl4       1.0  0.21291228098665552  0.7870876101413263  0.7870875683307876  1.0000
  Cl  Cl5       1.0  0.21291235743750977  0.7870877070902703  0.21291228261197867  1.0000
  Cl  Cl6       1.0  0.7870876696710707  0.21291229080708376  0.7870875377165455  1.0000
