data_image0
_chemical_formula_structural       Br2PbF6
_chemical_formula_sum              "Br2 Pb1 F6"
_cell_length_a       6.418975952663278
_cell_length_b       6.4189774799583965
_cell_length_c       6.418975296361216
_cell_angle_alpha    59.99998437011233
_cell_angle_beta     59.99997611625276
_cell_angle_gamma    59.99998367382652

_space_group_name_H-M_alt    "P 1"
_space_group_IT_number       1

loop_
  _space_group_symop_operation_xyz
  'x, y, z'

loop_
  _atom_site_type_symbol
  _atom_site_label
  _atom_site_symmetry_multiplicity
  _atom_site_fract_x
  _atom_site_fract_y
  _atom_site_fract_z
  _atom_site_occupancy
  Br  Br1       1.0  0.24999913240217692  0.2500013489538772  0.2499995092991749  1.0000
  Br  Br2       1.0  0.749999272913566  0.7500000171515231  0.7500009446771999  1.0000
  Pb  Pb1       1.0  1.1176791412697969e-07  0.9999999561158355  0.9999999909842079  1.0000
  F   F1        1.0  0.2291539951255509  0.22915335256089786  0.7708462609890306  1.0000
  F   F2        1.0  0.7708466143476599  0.7708461933062333  0.22915344642200525  1.0000
  F   F3        1.0  0.7708463590095569  0.2291536891094541  0.2291534288603468  1.0000
  F   F4        1.0  0.2291542119386727  0.7708460532823113  0.7708463755913897  1.0000
  F   F5        1.0  0.22915356759390046  0.7708462579529161  0.2291539654582875  1.0000
  F   F6        1.0  0.7708467749176939  0.2291532631101293  0.7708460233713111  1.0000
