data_image0
_chemical_formula_structural       Br2PdCl6
_chemical_formula_sum              "Br2 Pd1 Cl6"
_cell_length_a       7.046791013604297
_cell_length_b       7.046791281082709
_cell_length_c       7.046791096415455
_cell_angle_alpha    60.00000053368608
_cell_angle_beta     59.99999910657749
_cell_angle_gamma    60.00000159472941

_space_group_name_H-M_alt    "P 1"
_space_group_IT_number       1

loop_
  _space_group_symop_operation_xyz
  'x, y, z'

loop_
  _atom_site_type_symbol
  _atom_site_label
  _atom_site_symmetry_multiplicity
  _atom_site_fract_x
  _atom_site_fract_y
  _atom_site_fract_z
  _atom_site_occupancy
  Br  Br1       1.0  0.2499999625762602  0.24999982790568698  0.2500000736294997  1.0000
  Br  Br2       1.0  0.7499999938156023  0.7500000503108576  0.749999958340641  1.0000
  Pd  Pd1       1.0  0.9999999904323756  4.3450444304024845e-08  1.995481637804727e-08  1.0000
  Cl  Cl1       1.0  0.23307951006234184  0.23307963454503453  0.7669204565298646  1.0000
  Cl  Cl2       1.0  0.766920521024334  0.7669204226873417  0.23307953514917637  1.0000
  Cl  Cl3       1.0  0.7669204061154168  0.23307960194562583  0.23307955864857874  1.0000
  Cl  Cl4       1.0  0.23307961631527727  0.7669204222644127  0.7669203985252827  1.0000
  Cl  Cl5       1.0  0.23307958216778987  0.7669204197867303  0.23307955387918325  1.0000
  Cl  Cl6       1.0  0.7669204159818158  0.23307958878114796  0.766920444542587  1.0000
