data_image0
_chemical_formula_structural       Br2PF6
_chemical_formula_sum              "Br2 P1 F6"
_cell_length_a       5.19354175570051
_cell_length_b       5.193541666289007
_cell_length_c       5.193541885127228
_cell_angle_alpha    60.000000587799654
_cell_angle_beta     59.99999944833855
_cell_angle_gamma    60.00000130763043

_space_group_name_H-M_alt    "P 1"
_space_group_IT_number       1

loop_
  _space_group_symop_operation_xyz
  'x, y, z'

loop_
  _atom_site_type_symbol
  _atom_site_label
  _atom_site_symmetry_multiplicity
  _atom_site_fract_x
  _atom_site_fract_y
  _atom_site_fract_z
  _atom_site_occupancy
  Br  Br1       1.0  0.2499999416247756  0.2500000183253497  0.2500000064614679  1.0000
  Br  Br2       1.0  0.7500000473894012  0.7499999677223775  0.7499999517537014  1.0000
  P   P1        1.0  8.977979773144727e-10  3.065669674641163e-08  0.9999999861482214  1.0000
  F   F1        1.0  0.2285591813061633  0.22855903924756385  0.7714408714498159  1.0000
  F   F2        1.0  0.7714408464257181  0.7714409373673348  0.22855909137759772  1.0000
  F   F3        1.0  0.7714409232784544  0.22855908915059941  0.2285590927061161  1.0000
  F   F4        1.0  0.2285590726754758  0.7714408827478855  0.7714409653872099  1.0000
  F   F5        1.0  0.22855905844319963  0.7714408876191142  0.2285591097954292  1.0000
  F   F6        1.0  0.7714409298966365  0.22855913380172654  0.7714409215673619  1.0000
