data_image0
_chemical_formula_structural       Br2PdF6
_chemical_formula_sum              "Br2 Pd1 F6"
_cell_length_a       6.458925990942493
_cell_length_b       6.458923240403619
_cell_length_c       6.458924826755499
_cell_angle_alpha    59.99999398657905
_cell_angle_beta     59.99999799069773
_cell_angle_gamma    59.99999323298419

_space_group_name_H-M_alt    "P 1"
_space_group_IT_number       1

loop_
  _space_group_symop_operation_xyz
  'x, y, z'

loop_
  _atom_site_type_symbol
  _atom_site_label
  _atom_site_symmetry_multiplicity
  _atom_site_fract_x
  _atom_site_fract_y
  _atom_site_fract_z
  _atom_site_occupancy
  Br  Br1       1.0  0.24999943294330026  0.2500001213084074  0.2500003908748508  1.0000
  Br  Br2       1.0  0.7500000371891754  0.7499999543447351  0.7499999694456833  1.0000
  Pd  Pd1       1.0  1.6023228052060353e-07  0.9999998786428073  0.9999998814747454  1.0000
  F   F1        1.0  0.20766001111585836  0.20766013860880508  0.7923398576091452  1.0000
  F   F2        1.0  0.7923400806518776  0.79233990101644  0.2076601015304985  1.0000
  F   F3        1.0  0.7923401145489459  0.20765999129822663  0.2076600369020385  1.0000
  F   F4        1.0  0.20766009158278462  0.7923399573091225  0.7923398130250938  1.0000
  F   F5        1.0  0.20765996712954857  0.7923399674202172  0.20766012065695857  1.0000
  F   F6        1.0  0.7923401090905839  0.20766004376193595  0.7923398790569769  1.0000
