data_image0
_chemical_formula_structural       Br2RhF6
_chemical_formula_sum              "Br2 Rh1 F6"
_cell_length_a       6.367552630526915
_cell_length_b       6.367552177127929
_cell_length_c       6.367553540848523
_cell_angle_alpha    59.99999797555413
_cell_angle_beta     59.99999933505796
_cell_angle_gamma    59.9999975768637

_space_group_name_H-M_alt    "P 1"
_space_group_IT_number       1

loop_
  _space_group_symop_operation_xyz
  'x, y, z'

loop_
  _atom_site_type_symbol
  _atom_site_label
  _atom_site_symmetry_multiplicity
  _atom_site_fract_x
  _atom_site_fract_y
  _atom_site_fract_z
  _atom_site_occupancy
  Br  Br1       1.0  0.2499999622389012  0.24999995055400484  0.24999995555531518  1.0000
  Br  Br2       1.0  0.7499998951960244  0.749999945909399  0.7500003099980835  1.0000
  Rh  Rh1       1.0  3.615826790876567e-08  5.770248949450928e-09  3.2431446262789256e-08  1.0000
  F   F1        1.0  0.20998787285292372  0.20998793616896677  0.7900121114064759  1.0000
  F   F2        1.0  0.7900121433357423  0.790012098780354  0.20998788774246469  1.0000
  F   F3        1.0  0.7900121341350016  0.20998791548856421  0.20998780436682535  1.0000
  F   F4        1.0  0.20998788357481762  0.7900120713753633  0.7900121254069836  1.0000
  F   F5        1.0  0.2099879470533139  0.7900121143307455  0.20998774474515586  1.0000
  F   F6        1.0  0.7900120664607918  0.20998793408247804  0.7900120982447753  1.0000
