data_image0
_chemical_formula_structural       Br2RuCl6
_chemical_formula_sum              "Br2 Ru1 Cl6"
_cell_length_a       7.32943185169967
_cell_length_b       7.3294312956854295
_cell_length_c       7.329431509308616
_cell_angle_alpha    59.99999647845688
_cell_angle_beta     59.999997749662114
_cell_angle_gamma    59.99999755405135

_space_group_name_H-M_alt    "P 1"
_space_group_IT_number       1

loop_
  _space_group_symop_operation_xyz
  'x, y, z'

loop_
  _atom_site_type_symbol
  _atom_site_label
  _atom_site_symmetry_multiplicity
  _atom_site_fract_x
  _atom_site_fract_y
  _atom_site_fract_z
  _atom_site_occupancy
  Br  Br1       1.0  0.2499999540542045  0.24999984263455272  0.2500000876529637  1.0000
  Br  Br2       1.0  0.7500001761397145  0.7500001645530793  0.7499997289780301  1.0000
  Ru  Ru1       1.0  2.440954988069145e-08  9.691775684714924e-08  1.04424181838823e-07  1.0000
  Cl  Cl1       1.0  0.2190336861262768  0.21903356159149567  0.7809663902774739  1.0000
  Cl  Cl2       1.0  0.7809662039033641  0.7809663720723145  0.21903371554072076  1.0000
  Cl  Cl3       1.0  0.7809663901198147  0.21903356169857907  0.21903368148717942  1.0000
  Cl  Cl4       1.0  0.21903362282333133  0.7809664805799629  0.7809662840083698  1.0000
  Cl  Cl5       1.0  0.2190335974135614  0.7809664086036591  0.2190336855692011  1.0000
  Cl  Cl6       1.0  0.7809663797261529  0.2190335284021439  0.7809663709298711  1.0000
