data_image0
_chemical_formula_structural       Br2ReF6
_chemical_formula_sum              "Br2 Re1 F6"
_cell_length_a       5.466545902863272
_cell_length_b       5.466545665022821
_cell_length_c       5.4665459399162755
_cell_angle_alpha    60.00000042113358
_cell_angle_beta     60.00000016648707
_cell_angle_gamma    60.00000086706216

_space_group_name_H-M_alt    "P 1"
_space_group_IT_number       1

loop_
  _space_group_symop_operation_xyz
  'x, y, z'

loop_
  _atom_site_type_symbol
  _atom_site_label
  _atom_site_symmetry_multiplicity
  _atom_site_fract_x
  _atom_site_fract_y
  _atom_site_fract_z
  _atom_site_occupancy
  Br  Br1       1.0  0.25000002212561134  0.25000000236277  0.25000000524540295  1.0000
  Br  Br2       1.0  0.7499999822690832  0.7499999869243787  0.7500000294565667  1.0000
  Re  Re1       1.0  2.4494683984679464e-08  0.9999999708743256  1.1462038307757814e-08  1.0000
  F   F1        1.0  0.2398847760946744  0.2398847895697292  0.7601152052068844  1.0000
  F   F2        1.0  0.760115205042695  0.7601152378048396  0.2398847800059387  1.0000
  F   F3        1.0  0.7601152366813114  0.23988476935443626  0.23988475371584128  1.0000
  F   F4        1.0  0.23988480550056898  0.7601151952879104  0.7601152433166888  1.0000
  F   F5        1.0  0.239884779918554  0.7601152532156678  0.23988472670398187  1.0000
  F   F6        1.0  0.7601151633034969  0.2398848055250117  0.760115252636902  1.0000
