data_image0
_chemical_formula_structural       Br2RhCl6
_chemical_formula_sum              "Br2 Rh1 Cl6"
_cell_length_a       6.926451282943853
_cell_length_b       6.92645108037152
_cell_length_c       6.926451404287485
_cell_angle_alpha    59.99999712435839
_cell_angle_beta     59.99999823270652
_cell_angle_gamma    59.99999677871541

_space_group_name_H-M_alt    "P 1"
_space_group_IT_number       1

loop_
  _space_group_symop_operation_xyz
  'x, y, z'

loop_
  _atom_site_type_symbol
  _atom_site_label
  _atom_site_symmetry_multiplicity
  _atom_site_fract_x
  _atom_site_fract_y
  _atom_site_fract_z
  _atom_site_occupancy
  Br  Br1       1.0  0.2500000543492089  0.24999998606643473  0.2500000902274438  1.0000
  Br  Br2       1.0  0.7499998987375502  0.7500000059410946  0.7500000108125904  1.0000
  Rh  Rh1       1.0  3.0935074460683964e-08  0.9999999221985753  0.9999999671272872  1.0000
  Cl  Cl1       1.0  0.234779327319278  0.234779308026855  0.7652206700242031  1.0000
  Cl  Cl2       1.0  0.7652206915408787  0.7652207317224581  0.23477928474631407  1.0000
  Cl  Cl3       1.0  0.7652205868649165  0.2347793931975531  0.2347793751920875  1.0000
  Cl  Cl4       1.0  0.23477936216243342  0.7652206660021162  0.7652206697379884  1.0000
  Cl  Cl5       1.0  0.23477938497956274  0.7652206716108929  0.23477923385769456  1.0000
  Cl  Cl6       1.0  0.7652206761819079  0.23477930625092291  0.7652206888374334  1.0000
