data_image0
_chemical_formula_structural       Br2ReCl6
_chemical_formula_sum              "Br2 Re1 Cl6"
_cell_length_a       7.532518237749343
_cell_length_b       7.532518927246625
_cell_length_c       7.532518238588789
_cell_angle_alpha    60.000003758456195
_cell_angle_beta     60.000003807870364
_cell_angle_gamma    59.99999956766212

_space_group_name_H-M_alt    "P 1"
_space_group_IT_number       1

loop_
  _space_group_symop_operation_xyz
  'x, y, z'

loop_
  _atom_site_type_symbol
  _atom_site_label
  _atom_site_symmetry_multiplicity
  _atom_site_fract_x
  _atom_site_fract_y
  _atom_site_fract_z
  _atom_site_occupancy
  Br  Br1       1.0  0.2500001300983627  0.25000009369938575  0.2500000308686504  1.0000
  Br  Br2       1.0  0.7499999078849449  0.7499999347722707  0.75000023482061  1.0000
  Re  Re1       1.0  0.9999999859084935  4.227452468839535e-08  7.883889967001279e-08  1.0000
  Cl  Cl1       1.0  0.21161088829006  0.21161092855704267  0.7883890007927958  1.0000
  Cl  Cl2       1.0  0.7883891942897556  0.7883890121136783  0.2116108815876115  1.0000
  Cl  Cl3       1.0  0.7883888953423629  0.21161115479465312  0.21161078424206312  1.0000
  Cl  Cl4       1.0  0.21161090608234748  0.7883890866755835  0.7883891069022144  1.0000
  Cl  Cl5       1.0  0.21161101594434217  0.788388938969862  0.21161078657720997  1.0000
  Cl  Cl6       1.0  0.7883890513697477  0.21161089113671933  0.7883890671152974  1.0000
