data_image0
_chemical_formula_structural       Br2SeCl6
_chemical_formula_sum              "Br2 Se1 Cl6"
_cell_length_a       7.468531123506491
_cell_length_b       7.468531390040114
_cell_length_c       7.468530698877445
_cell_angle_alpha    60.00000076134942
_cell_angle_beta     60.000002572467885
_cell_angle_gamma    60.00000396908945

_space_group_name_H-M_alt    "P 1"
_space_group_IT_number       1

loop_
  _space_group_symop_operation_xyz
  'x, y, z'

loop_
  _atom_site_type_symbol
  _atom_site_label
  _atom_site_symmetry_multiplicity
  _atom_site_fract_x
  _atom_site_fract_y
  _atom_site_fract_z
  _atom_site_occupancy
  Br  Br1       1.0  0.24999998290986822  0.2499999034095843  0.25000004852101  1.0000
  Br  Br2       1.0  0.7500000465188581  0.7499999873674207  0.7499998335765803  1.0000
  Se  Se1       1.0  4.592747577208684e-09  0.9999999212860616  7.603664907903172e-09  1.0000
  Cl  Cl1       1.0  0.22003377998716356  0.22003367187411027  0.7799663532213192  1.0000
  Cl  Cl2       1.0  0.7799664282222838  0.7799664107681202  0.2200335832256046  1.0000
  Cl  Cl3       1.0  0.7799662219842788  0.2200337240926251  0.22003381924349918  1.0000
  Cl  Cl4       1.0  0.22003357933880685  0.7799663454306016  0.7799663995094837  1.0000
  Cl  Cl5       1.0  0.22003353784713747  0.7799664303678909  0.22003361877310101  1.0000
  Cl  Cl6       1.0  0.7799663785429433  0.22003360471799707  0.7799663347212116  1.0000
