data_image0
_chemical_formula_structural       Br2SeF6
_chemical_formula_sum              "Br2 Se1 F6"
_cell_length_a       5.2354601983465505
_cell_length_b       5.23546040296909
_cell_length_c       5.235460507046012
_cell_angle_alpha    59.999999063698624
_cell_angle_beta     59.999999895640016
_cell_angle_gamma    60.00000139722615

_space_group_name_H-M_alt    "P 1"
_space_group_IT_number       1

loop_
  _space_group_symop_operation_xyz
  'x, y, z'

loop_
  _atom_site_type_symbol
  _atom_site_label
  _atom_site_symmetry_multiplicity
  _atom_site_fract_x
  _atom_site_fract_y
  _atom_site_fract_z
  _atom_site_occupancy
  Br  Br1       1.0  0.2499999601957894  0.24999995430173025  0.2499999781879722  1.0000
  Br  Br2       1.0  0.7499999777189154  0.7499999354242973  0.7499999662517417  1.0000
  Se  Se1       1.0  0.9999997562326662  0.9999999836247099  5.827535505219922e-07  1.0000
  F   F1        1.0  0.24788204023176222  0.24788202869929057  0.7521179098234632  1.0000
  F   F2        1.0  0.752118099074845  0.7521180177615824  0.24788191667453255  1.0000
  F   F3        1.0  0.7521180105185785  0.247882021946365  0.24788195077613814  1.0000
  F   F4        1.0  0.24788209715367654  0.7521179870852917  0.7521178663224531  1.0000
  F   F5        1.0  0.2478820886538675  0.7521180109105734  0.24788189766886448  1.0000
  F   F6        1.0  0.7521179782484024  0.24788205426490711  0.7521179193830134  1.0000
