data_image0
_chemical_formula_structural       Br2SiF6
_chemical_formula_sum              "Br2 Si1 F6"
_cell_length_a       5.1631792861120145
_cell_length_b       5.16317947005506
_cell_length_c       5.163179492651604
_cell_angle_alpha    60.00000076840766
_cell_angle_beta     60.00000095346266
_cell_angle_gamma    60.00000042140217

_space_group_name_H-M_alt    "P 1"
_space_group_IT_number       1

loop_
  _space_group_symop_operation_xyz
  'x, y, z'

loop_
  _atom_site_type_symbol
  _atom_site_label
  _atom_site_symmetry_multiplicity
  _atom_site_fract_x
  _atom_site_fract_y
  _atom_site_fract_z
  _atom_site_occupancy
  Br  Br1       1.0  0.25000000281843465  0.25000001409276235  0.24999996923108841  1.0000
  Br  Br2       1.0  0.7499999873121174  0.7499999782322639  0.7499999638454067  1.0000
  Si  Si1       1.0  0.999999974992465  2.1348674620472727e-08  9.576594257969135e-09  1.0000
  F   F1        1.0  0.2423375275266062  0.24233751323023953  0.7576624772030651  1.0000
  F   F2        1.0  0.7576624908866352  0.7576624814668617  0.24233752576485604  1.0000
  F   F3        1.0  0.7576624738373365  0.2423375418353548  0.2423375249572928  1.0000
  F   F4        1.0  0.2423375390410628  0.757662469466271  0.7576624627918317  1.0000
  F   F5        1.0  0.2423375148911677  0.7576624661929744  0.24233754468829022  1.0000
  F   F6        1.0  0.7576624616852428  0.24233753324827711  0.7576625097514188  1.0000
