data_image0
_chemical_formula_structural       Br2SF6
_chemical_formula_sum              "Br2 S1 F6"
_cell_length_a       5.28205058579542
_cell_length_b       5.282050509239446
_cell_length_c       5.282050641018055
_cell_angle_alpha    59.99999896186108
_cell_angle_beta     59.999999699753964
_cell_angle_gamma    59.99999838592386

_space_group_name_H-M_alt    "P 1"
_space_group_IT_number       1

loop_
  _space_group_symop_operation_xyz
  'x, y, z'

loop_
  _atom_site_type_symbol
  _atom_site_label
  _atom_site_symmetry_multiplicity
  _atom_site_fract_x
  _atom_site_fract_y
  _atom_site_fract_z
  _atom_site_occupancy
  Br  Br1       1.0  0.2500000310650265  0.2499999412971545  0.2500000190861393  1.0000
  Br  Br2       1.0  0.7499999584496235  0.7500000117055267  0.7499999985396438  1.0000
  S   S1        1.0  0.9999999872585693  1.854953708161261e-08  6.5619673353871016e-09  1.0000
  F   F1        1.0  0.22615244859362707  0.22615245606064413  0.7738475604466859  1.0000
  F   F2        1.0  0.7738475514536173  0.773847517810266  0.22615244337188997  1.0000
  F   F3        1.0  0.7738475432687499  0.22615246104377665  0.22615243184380673  1.0000
  F   F4        1.0  0.2261524509703875  0.7738475499262075  0.773847554436081  1.0000
  F   F5        1.0  0.22615246040429673  0.7738475536608269  0.22615245240259635  1.0000
  F   F6        1.0  0.7738475595374136  0.22615248513346242  0.7738475506575471  1.0000
