data_image0
_chemical_formula_structural       Br2SiCl6
_chemical_formula_sum              "Br2 Si1 Cl6"
_cell_length_a       11.125339716779594
_cell_length_b       11.125339455030852
_cell_length_c       11.125339895141803
_cell_angle_alpha    60.00001249989307
_cell_angle_beta     60.00000862551068
_cell_angle_gamma    60.000007391129195

_space_group_name_H-M_alt    "P 1"
_space_group_IT_number       1

loop_
  _space_group_symop_operation_xyz
  'x, y, z'

loop_
  _atom_site_type_symbol
  _atom_site_label
  _atom_site_symmetry_multiplicity
  _atom_site_fract_x
  _atom_site_fract_y
  _atom_site_fract_z
  _atom_site_occupancy
  Br  Br1       1.0  0.24999997277379918  0.25000016494265365  0.24999984531413486  1.0000
  Br  Br2       1.0  0.7500004696972805  0.7499999554063072  0.7499995928846978  1.0000
  Si  Si1       1.0  0.9999999576978867  0.9999999867896792  7.35975088421897e-08  1.0000
  Cl  Cl1       1.0  0.14000653506467467  0.14000649927957545  0.859993591156064  1.0000
  Cl  Cl2       1.0  0.8599933315421949  0.8599934306205673  0.14000668321909007  1.0000
  Cl  Cl3       1.0  0.8599933915646274  0.14000660255367564  0.14000659525180156  1.0000
  Cl  Cl4       1.0  0.14000650914545884  0.8599933713808809  0.8599935780339671  1.0000
  Cl  Cl5       1.0  0.14000647069241  0.8599934057819446  0.1400066991649416  1.0000
  Cl  Cl6       1.0  0.8599934072378551  0.14000647457945983  0.8599934765686679  1.0000
