data_image0
_chemical_formula_structural       Br2SnCl6
_chemical_formula_sum              "Br2 Sn1 Cl6"
_cell_length_a       7.343863693944812
_cell_length_b       7.3438634942719165
_cell_length_c       7.343863338966121
_cell_angle_alpha    60.00000130423604
_cell_angle_beta     59.9999986724347
_cell_angle_gamma    60.000003673306345

_space_group_name_H-M_alt    "P 1"
_space_group_IT_number       1

loop_
  _space_group_symop_operation_xyz
  'x, y, z'

loop_
  _atom_site_type_symbol
  _atom_site_label
  _atom_site_symmetry_multiplicity
  _atom_site_fract_x
  _atom_site_fract_y
  _atom_site_fract_z
  _atom_site_occupancy
  Br  Br1       1.0  0.24999999825003477  0.2500000446098619  0.2500000641245394  1.0000
  Br  Br2       1.0  0.7500001378979412  0.7500000204251812  0.7500000290786571  1.0000
  Sn  Sn1       1.0  9.354989933837544e-09  0.9999999766520332  0.9999999606993303  1.0000
  Cl  Cl1       1.0  0.23514590704094251  0.2351458733250112  0.7648540935764692  1.0000
  Cl  Cl2       1.0  0.7648540386503291  0.7648540649639173  0.23514593899748137  1.0000
  Cl  Cl3       1.0  0.7648540195914667  0.23514595579235634  0.23514590275698508  1.0000
  Cl  Cl4       1.0  0.23514590681756317  0.764854059211317  0.7648540425484268  1.0000
  Cl  Cl5       1.0  0.235145951696201  0.7648540280421989  0.2351459392263291  1.0000
  Cl  Cl6       1.0  0.7648540376225436  0.23514595861037577  0.7648540405436552  1.0000
