data_image0
_chemical_formula_structural       Br2SCl6
_chemical_formula_sum              "Br2 S1 Cl6"
_cell_length_a       11.111647197781783
_cell_length_b       11.111648922625088
_cell_length_c       11.111646934915086
_cell_angle_alpha    60.00002959526004
_cell_angle_beta     60.00001911471026
_cell_angle_gamma    60.00001710778786

_space_group_name_H-M_alt    "P 1"
_space_group_IT_number       1

loop_
  _space_group_symop_operation_xyz
  'x, y, z'

loop_
  _atom_site_type_symbol
  _atom_site_label
  _atom_site_symmetry_multiplicity
  _atom_site_fract_x
  _atom_site_fract_y
  _atom_site_fract_z
  _atom_site_occupancy
  Br  Br1       1.0  0.24999867807418327  0.2499990703405872  0.2500002559393665  1.0000
  Br  Br2       1.0  0.7499979906497936  0.7500010996426741  0.7500005082665686  1.0000
  S   S1        1.0  5.301818168118259e-07  0.9999999713423642  0.9999998428334642  1.0000
  Cl  Cl1       1.0  0.14605715585742182  0.14605678558734783  0.8539433595932056  1.0000
  Cl  Cl2       1.0  0.8539437823987671  0.8539432267789675  0.14605638450570677  1.0000
  Cl  Cl3       1.0  0.853943456677796  0.14605660370297927  0.14605674762836518  1.0000
  Cl  Cl4       1.0  0.1460573189656816  0.8539432168776198  0.8539430746744779  1.0000
  Cl  Cl5       1.0  0.14605724150667262  0.8539432533627895  0.1460566336788668  1.0000
  Cl  Cl6       1.0  0.8539438725186634  0.14605671491484834  0.8539430283806084  1.0000
