data_image0
_chemical_formula_structural       Br2TiCl6
_chemical_formula_sum              "Br2 Ti1 Cl6"
_cell_length_a       11.237922147861346
_cell_length_b       11.237916287657848
_cell_length_c       11.2379209983906
_cell_angle_alpha    59.99999591102469
_cell_angle_beta     59.999983706465216
_cell_angle_gamma    59.999994689578536

_space_group_name_H-M_alt    "P 1"
_space_group_IT_number       1

loop_
  _space_group_symop_operation_xyz
  'x, y, z'

loop_
  _atom_site_type_symbol
  _atom_site_label
  _atom_site_symmetry_multiplicity
  _atom_site_fract_x
  _atom_site_fract_y
  _atom_site_fract_z
  _atom_site_occupancy
  Br  Br1       1.0  0.24999916420808768  0.2500007402150982  0.2500010462481187  1.0000
  Br  Br2       1.0  0.7500009447953475  0.7499993947085658  0.7499992190874881  1.0000
  Ti  Ti1       1.0  0.9999999898710392  0.9999999564066674  0.9999999147407626  1.0000
  Cl  Cl1       1.0  0.1493140155704251  0.1493138755221656  0.8506861083844133  1.0000
  Cl  Cl2       1.0  0.8506859201714899  0.8506861133638185  0.14931392417947015  1.0000
  Cl  Cl3       1.0  0.8506859612154056  0.14931402626471393  0.149313836049398  1.0000
  Cl  Cl4       1.0  0.14931392154335604  0.8506859212075882  0.8506860728628015  1.0000
  Cl  Cl5       1.0  0.14931385331789754  0.8506860005651743  0.14931390147275508  1.0000
  Cl  Cl6       1.0  0.8506862458594868  0.1493139850512927  0.8506858685900449  1.0000
