data_image0
_chemical_formula_structural       Br2TaCl6
_chemical_formula_sum              "Br2 Ta1 Cl6"
_cell_length_a       11.381047969218702
_cell_length_b       11.381048724503616
_cell_length_c       11.381049040200386
_cell_angle_alpha    59.999990498465024
_cell_angle_beta     59.999993365817076
_cell_angle_gamma    59.99998964338708

_space_group_name_H-M_alt    "P 1"
_space_group_IT_number       1

loop_
  _space_group_symop_operation_xyz
  'x, y, z'

loop_
  _atom_site_type_symbol
  _atom_site_label
  _atom_site_symmetry_multiplicity
  _atom_site_fract_x
  _atom_site_fract_y
  _atom_site_fract_z
  _atom_site_occupancy
  Br  Br1       1.0  0.25000013523130277  0.24999993868515324  0.2500004585672616  1.0000
  Br  Br2       1.0  0.7500000805353177  0.7499998418826119  0.7500004358370153  1.0000
  Ta  Ta1       1.0  0.9999999627576307  2.15226198125816e-09  0.9999999428594963  1.0000
  Cl  Cl1       1.0  0.14727120288503018  0.1472711615705022  0.8527286505170842  1.0000
  Cl  Cl2       1.0  0.8527287833977981  0.8527288417555892  0.14727116826326528  1.0000
  Cl  Cl3       1.0  0.8527286879776619  0.1472712927873308  0.14727099201770893  1.0000
  Cl  Cl4       1.0  0.14727113386021815  0.8527287503554715  0.852728727404494  1.0000
  Cl  Cl5       1.0  0.14727120376385783  0.8527288257583132  0.1472710785963282  1.0000
  Cl  Cl6       1.0  0.8527287349654505  0.14727125935341764  0.8527286106002934  1.0000
