data_image0
_chemical_formula_structural       Br2TeCl6
_chemical_formula_sum              "Br2 Te1 Cl6"
_cell_length_a       11.24854961907649
_cell_length_b       11.248549223191763
_cell_length_c       11.248551479260785
_cell_angle_alpha    59.99999481521887
_cell_angle_beta     59.999996018223605
_cell_angle_gamma    59.99999225667131

_space_group_name_H-M_alt    "P 1"
_space_group_IT_number       1

loop_
  _space_group_symop_operation_xyz
  'x, y, z'

loop_
  _atom_site_type_symbol
  _atom_site_label
  _atom_site_symmetry_multiplicity
  _atom_site_fract_x
  _atom_site_fract_y
  _atom_site_fract_z
  _atom_site_occupancy
  Br  Br1       1.0  0.24999993090891068  0.25000051284093117  0.2500002095425144  1.0000
  Br  Br2       1.0  0.750000636131774  0.7500003571719223  0.7499993040748185  1.0000
  Te  Te1       1.0  0.9999999411888011  0.9999998900309401  6.749906378869235e-08  1.0000
  Cl  Cl1       1.0  0.15165431438585786  0.1516542799468008  0.8483456929322545  1.0000
  Cl  Cl2       1.0  0.8483455163805363  0.8483454544449721  0.15165435480322695  1.0000
  Cl  Cl3       1.0  0.8483455908947009  0.1516542126741011  0.15165447607629087  1.0000
  Cl  Cl4       1.0  0.15165432964615977  0.8483455511153397  0.8483456774277485  1.0000
  Cl  Cl5       1.0  0.15165426881552183  0.8483454281704873  0.1516544740452669  1.0000
  Cl  Cl6       1.0  0.8483454645334204  0.15165433670776424  0.8483457582862708  1.0000
