data_image0
_chemical_formula_structural       Br2VCl6
_chemical_formula_sum              "Br2 V1 Cl6"
_cell_length_a       11.167194147579156
_cell_length_b       11.167195593937723
_cell_length_c       11.167194825894573
_cell_angle_alpha    59.99999709166783
_cell_angle_beta     59.99999560226956
_cell_angle_gamma    59.999988393540285

_space_group_name_H-M_alt    "P 1"
_space_group_IT_number       1

loop_
  _space_group_symop_operation_xyz
  'x, y, z'

loop_
  _atom_site_type_symbol
  _atom_site_label
  _atom_site_symmetry_multiplicity
  _atom_site_fract_x
  _atom_site_fract_y
  _atom_site_fract_z
  _atom_site_occupancy
  Br  Br1       1.0  0.2500000062107613  0.2499998173337487  0.2500003288695755  1.0000
  Br  Br2       1.0  0.7499997366066048  0.7500001615885754  0.750000176438176  1.0000
  V   V1        1.0  0.99999999608256  4.277265236962955e-08  0.9999999026656293  1.0000
  Cl  Cl1       1.0  0.14264396980919872  0.14264372946880352  0.8573561282382672  1.0000
  Cl  Cl2       1.0  0.8573561916053922  0.8573562406796086  0.14264377993756605  1.0000
  Cl  Cl3       1.0  0.85735612232017  0.14264388826984115  0.1426437549928074  1.0000
  Cl  Cl4       1.0  0.1426437743444432  0.8573561564565624  0.8573561220063362  1.0000
  Cl  Cl5       1.0  0.14264392215007965  0.8573561865195949  0.14264371772017465  1.0000
  Cl  Cl6       1.0  0.8573561845747347  0.14264390426962772  0.8573561315112167  1.0000
