data_image0
_chemical_formula_structural       Br2VF6
_chemical_formula_sum              "Br2 V1 F6"
_cell_length_a       11.1099815198552
_cell_length_b       11.110058461262183
_cell_length_c       11.109977895299535
_cell_angle_alpha    60.00021623140027
_cell_angle_beta     60.00003329617708
_cell_angle_gamma    60.0001652685676

_space_group_name_H-M_alt    "P 1"
_space_group_IT_number       1

loop_
  _space_group_symop_operation_xyz
  'x, y, z'

loop_
  _atom_site_type_symbol
  _atom_site_label
  _atom_site_symmetry_multiplicity
  _atom_site_fract_x
  _atom_site_fract_y
  _atom_site_fract_z
  _atom_site_occupancy
  Br  Br1       1.0  0.2500117532260487  0.25002175261245224  0.24994702633061272  1.0000
  Br  Br2       1.0  0.7500148432352112  0.7499866179562245  0.7499526027873531  1.0000
  V   V1        1.0  0.9999955854320776  0.9999998269265403  1.4436958442895431e-05  1.0000
  F   F1        1.0  0.1146007106774091  0.11460964811096626  0.8854011683819766  1.0000
  F   F2        1.0  0.8853889615850503  0.8853845503596187  0.11462814410138003  1.0000
  F   F3        1.0  0.885381951194201  0.11461256230408677  0.1146214571407421  1.0000
  F   F4        1.0  0.11460957594163552  0.885387234005696  0.8854092865116548  1.0000
  F   F5        1.0  0.11460547238527191  0.8853998715005137  0.11462191621542576  1.0000
  F   F6        1.0  0.8853865683701334  0.11459991488914938  0.8854040733281531  1.0000
