data_image0
_chemical_formula_structural       Br2ZrCl6
_chemical_formula_sum              "Br2 Zr1 Cl6"
_cell_length_a       11.30284365794472
_cell_length_b       11.302842759090597
_cell_length_c       11.302842439872029
_cell_angle_alpha    59.99999982925496
_cell_angle_beta     60.00000690993995
_cell_angle_gamma    60.000011730179914

_space_group_name_H-M_alt    "P 1"
_space_group_IT_number       1

loop_
  _space_group_symop_operation_xyz
  'x, y, z'

loop_
  _atom_site_type_symbol
  _atom_site_label
  _atom_site_symmetry_multiplicity
  _atom_site_fract_x
  _atom_site_fract_y
  _atom_site_fract_z
  _atom_site_occupancy
  Br  Br1       1.0  0.2499994588613088  0.250000311347071  0.24999988290997552  1.0000
  Br  Br2       1.0  0.7500004243131949  0.7499999642441958  0.7499991433837225  1.0000
  Zr  Zr1       1.0  0.9999999998140948  9.7521481778215e-09  1.2881159214881464e-07  1.0000
  Cl  Cl1       1.0  0.1571043193592479  0.15710416397272278  0.8428959220264233  1.0000
  Cl  Cl2       1.0  0.8428957992654578  0.8428956933595995  0.1571044502233382  1.0000
  Cl  Cl3       1.0  0.8428957751344216  0.1571042624815797  0.15710436759108687  1.0000
  Cl  Cl4       1.0  0.15710408228591374  0.8428958635766655  0.8428958327985808  1.0000
  Cl  Cl5       1.0  0.15710434180095634  0.8428956868762462  0.1571043277629682  1.0000
  Cl  Cl6       1.0  0.842895785255072  0.15710413903247966  0.8428959825500746  1.0000
