data_image0
_chemical_formula_structural       Ca2AgF6
_chemical_formula_sum              "Ca2 Ag1 F6"
_cell_length_a       5.6298170998545105
_cell_length_b       5.629817095723311
_cell_length_c       5.629817126109032
_cell_angle_alpha    59.99999894110054
_cell_angle_beta     59.9999986896091
_cell_angle_gamma    59.99999827082259

_space_group_name_H-M_alt    "P 1"
_space_group_IT_number       1

loop_
  _space_group_symop_operation_xyz
  'x, y, z'

loop_
  _atom_site_type_symbol
  _atom_site_label
  _atom_site_symmetry_multiplicity
  _atom_site_fract_x
  _atom_site_fract_y
  _atom_site_fract_z
  _atom_site_occupancy
  Ca  Ca1       1.0  0.2500000006052997  0.24999992564548082  0.2500000555757063  1.0000
  Ca  Ca2       1.0  0.7500000114667204  0.749999987956183  0.7500000208667038  1.0000
  Ag  Ag1       1.0  0.9999999488269565  3.0456457928835176e-08  1.2134549635743169e-08  1.0000
  F   F1        1.0  0.26545006339047195  0.2654500331767555  0.734549957203338  1.0000
  F   F2        1.0  0.7345499316297618  0.7345499500396685  0.2654500396698859  1.0000
  F   F3        1.0  0.7345499645740693  0.2654501185327854  0.2654499788281185  1.0000
  F   F4        1.0  0.2654500536901145  0.7345499364738595  0.7345499456604266  1.0000
  F   F5        1.0  0.2654500672069867  0.734549936930639  0.2654500512630032  1.0000
  F   F6        1.0  0.7345499711126686  0.26545007021585815  0.7345499226530128  1.0000
