data_image0
_chemical_formula_structural       Ca2AgCl6
_chemical_formula_sum              "Ca2 Ag1 Cl6"
_cell_length_a       6.766543452749519
_cell_length_b       6.766543363135645
_cell_length_c       6.76654357215782
_cell_angle_alpha    59.99999995701154
_cell_angle_beta     60.00000044532499
_cell_angle_gamma    59.99999987088057

_space_group_name_H-M_alt    "P 1"
_space_group_IT_number       1

loop_
  _space_group_symop_operation_xyz
  'x, y, z'

loop_
  _atom_site_type_symbol
  _atom_site_label
  _atom_site_symmetry_multiplicity
  _atom_site_fract_x
  _atom_site_fract_y
  _atom_site_fract_z
  _atom_site_occupancy
  Ca  Ca1       1.0  0.24999998215134198  0.24999997173854874  0.25000006437477396  1.0000
  Ca  Ca2       1.0  0.7499999255946136  0.7500000545857046  0.7499999240129654  1.0000
  Ag  Ag1       1.0  0.9999999996894529  1.6290006993438275e-08  0.9999999920102702  1.0000
  Cl  Cl1       1.0  0.25921091071246427  0.25921088649082696  0.7407891316144564  1.0000
  Cl  Cl2       1.0  0.7407891260550288  0.7407890855334038  0.25921089478335535  1.0000
  Cl  Cl3       1.0  0.7407891335282029  0.2592108541883035  0.2592108849569832  1.0000
  Cl  Cl4       1.0  0.25921087562498185  0.7407891341259338  0.7407891175457915  1.0000
  Cl  Cl5       1.0  0.259210910744612  0.7407891161747142  0.25921086960638756  1.0000
  Cl  Cl6       1.0  0.7407891340377276  0.25921088299952777  0.7407891155632451  1.0000
