data_image0
_chemical_formula_structural       Ca2AgBr6
_chemical_formula_sum              "Ca2 Ag1 Br6"
_cell_length_a       7.13777336791494
_cell_length_b       7.13777335414247
_cell_length_c       7.137773348506395
_cell_angle_alpha    59.999999159741634
_cell_angle_beta     60.00000088587296
_cell_angle_gamma    60.00000020736856

_space_group_name_H-M_alt    "P 1"
_space_group_IT_number       1

loop_
  _space_group_symop_operation_xyz
  'x, y, z'

loop_
  _atom_site_type_symbol
  _atom_site_label
  _atom_site_symmetry_multiplicity
  _atom_site_fract_x
  _atom_site_fract_y
  _atom_site_fract_z
  _atom_site_occupancy
  Ca  Ca1       1.0  0.24999999422075006  0.25000007881537045  0.24999996135195643  1.0000
  Ca  Ca2       1.0  0.7499999863268046  0.7499999876458218  0.7499999828067873  1.0000
  Ag  Ag1       1.0  2.744804665115112e-09  2.5737961035108675e-08  0.999999985758617  1.0000
  Br  Br1       1.0  0.2595824840041896  0.25958246290817616  0.7404175350208376  1.0000
  Br  Br2       1.0  0.7404174718540718  0.7404175126122196  0.2595825285968254  1.0000
  Br  Br3       1.0  0.7404175410233751  0.2595824687820805  0.25958247620710984  1.0000
  Br  Br4       1.0  0.25958249639157854  0.7404174998748598  0.74041750383103  1.0000
  Br  Br5       1.0  0.2595824947770086  0.7404174785897052  0.2595824939898089  1.0000
  Br  Br6       1.0  0.7404175275064016  0.25958249178309883  0.7404175277810988  1.0000
