data_image0
_chemical_formula_structural       Ca2AuI6
_chemical_formula_sum              "Ca2 Au1 I6"
_cell_length_a       7.786617686138022
_cell_length_b       7.786617646235548
_cell_length_c       7.786617604602749
_cell_angle_alpha    60.00000102741151
_cell_angle_beta     60.00000020895533
_cell_angle_gamma    59.99999948880684

_space_group_name_H-M_alt    "P 1"
_space_group_IT_number       1

loop_
  _space_group_symop_operation_xyz
  'x, y, z'

loop_
  _atom_site_type_symbol
  _atom_site_label
  _atom_site_symmetry_multiplicity
  _atom_site_fract_x
  _atom_site_fract_y
  _atom_site_fract_z
  _atom_site_occupancy
  Ca  Ca1       1.0  0.2499999877794905  0.25000000349630214  0.25000003623600014  1.0000
  Ca  Ca2       1.0  0.749999968925805  0.750000002624484  0.7500000340755193  1.0000
  Au  Au1       1.0  0.9999999897839689  1.7301727230313384e-08  0.9999999810460961  1.0000
  I   I1        1.0  0.25928257966764295  0.2592825581741213  0.7407174318853741  1.0000
  I   I2        1.0  0.7407174345275195  0.740717440082242  0.2592825609589816  1.0000
  I   I3        1.0  0.7407174324166285  0.25928257085458145  0.2592825388980968  1.0000
  I   I4        1.0  0.2592825774942211  0.7407174447035091  0.740717424320968  1.0000
  I   I5        1.0  0.2592825748339424  0.7407174146453632  0.25928256865255195  1.0000
  I   I6        1.0  0.7407174563031289  0.2592825505804297  0.7407174219620971  1.0000
