data_image0
_chemical_formula_structural       Ca2AuCl6
_chemical_formula_sum              "Ca2 Au1 Cl6"
_cell_length_a       6.827369061113337
_cell_length_b       6.827369000039582
_cell_length_c       6.827369030185285
_cell_angle_alpha    59.99999973728655
_cell_angle_beta     59.99999981830061
_cell_angle_gamma    60.00000014090688

_space_group_name_H-M_alt    "P 1"
_space_group_IT_number       1

loop_
  _space_group_symop_operation_xyz
  'x, y, z'

loop_
  _atom_site_type_symbol
  _atom_site_label
  _atom_site_symmetry_multiplicity
  _atom_site_fract_x
  _atom_site_fract_y
  _atom_site_fract_z
  _atom_site_occupancy
  Ca  Ca1       1.0  0.24999997124795126  0.25000001410430717  0.250000013054596  1.0000
  Ca  Ca2       1.0  0.7499999895613592  0.7500000279619193  0.7499999454487349  1.0000
  Au  Au1       1.0  0.9999999465619306  2.3320378872597243e-08  0.9999999696533607  1.0000
  Cl  Cl1       1.0  0.2577818710150753  0.2577819008516769  0.74221810291345  1.0000
  Cl  Cl2       1.0  0.7422181541655389  0.7422181358329237  0.25778186857114027  1.0000
  Cl  Cl3       1.0  0.742218149760035  0.257781851320162  0.25778189653873057  1.0000
  Cl  Cl4       1.0  0.2577818564413095  0.7422181458991816  0.7422181158856676  1.0000
  Cl  Cl5       1.0  0.2577819096253491  0.7422180723839881  0.257781917113782  1.0000
  Cl  Cl6       1.0  0.7422181599067822  0.2577818261722132  0.7422181700998232  1.0000
