data_image0
_chemical_formula_structural       Ca2AuBr6
_chemical_formula_sum              "Ca2 Au1 Br6"
_cell_length_a       7.148929983335877
_cell_length_b       7.148929970089567
_cell_length_c       7.148929729019484
_cell_angle_alpha    60.000000598216886
_cell_angle_beta     60.00000122118988
_cell_angle_gamma    59.99999923270525

_space_group_name_H-M_alt    "P 1"
_space_group_IT_number       1

loop_
  _space_group_symop_operation_xyz
  'x, y, z'

loop_
  _atom_site_type_symbol
  _atom_site_label
  _atom_site_symmetry_multiplicity
  _atom_site_fract_x
  _atom_site_fract_y
  _atom_site_fract_z
  _atom_site_occupancy
  Ca  Ca1       1.0  0.24999998288940295  0.24999991638758723  0.24999997749791802  1.0000
  Ca  Ca2       1.0  0.7500000063704441  0.7500000266989353  0.7500001621368114  1.0000
  Au  Au1       1.0  2.205865390008338e-08  0.9999999725890191  3.484881165637427e-08  1.0000
  Br  Br1       1.0  0.25913180025009597  0.25913182311849753  0.7408681917232478  1.0000
  Br  Br2       1.0  0.7408682042632049  0.7408681953482219  0.2591317417314156  1.0000
  Br  Br3       1.0  0.7408682346993124  0.25913182294304943  0.25913175596976906  1.0000
  Br  Br4       1.0  0.25913173188038535  0.740868236640141  0.740868196875622  1.0000
  Br  Br5       1.0  0.2591317890396701  0.7408682292667146  0.259131761003542  1.0000
  Br  Br6       1.0  0.7408682296353939  0.25913178063407327  0.7408681794448813  1.0000
