data_image0
_chemical_formula_structural       Ca2BeI6
_chemical_formula_sum              "Ca2 Be1 I6"
_cell_length_a       7.6133877602223805
_cell_length_b       7.613387715528467
_cell_length_c       7.613387687223551
_cell_angle_alpha    60.000000398512455
_cell_angle_beta     60.000000032953125
_cell_angle_gamma    59.99999920301715

_space_group_name_H-M_alt    "P 1"
_space_group_IT_number       1

loop_
  _space_group_symop_operation_xyz
  'x, y, z'

loop_
  _atom_site_type_symbol
  _atom_site_label
  _atom_site_symmetry_multiplicity
  _atom_site_fract_x
  _atom_site_fract_y
  _atom_site_fract_z
  _atom_site_occupancy
  Ca  Ca1       1.0  0.24999999027366948  0.25000002845003816  0.25000005713458434  1.0000
  Ca  Ca2       1.0  0.7499999580305541  0.7499999872210811  0.7500000193343305  1.0000
  Be  Be1       1.0  1.2853596337941224e-08  0.9999999887392913  2.5473070850747208e-08  1.0000
  I   I1        1.0  0.24426980315354185  0.24426975679295776  0.7557302164349528  1.0000
  I   I2        1.0  0.7557302283073748  0.755730246008779  0.24426975527609254  1.0000
  I   I3        1.0  0.755730244721629  0.2442697569091148  0.24426976243636286  1.0000
  I   I4        1.0  0.24426977086813437  0.7557302298058954  0.7557301989841078  1.0000
  I   I5        1.0  0.24426977055145785  0.7557302260503814  0.24426974741232368  1.0000
  I   I6        1.0  0.755730227894915  0.24426978479471878  0.7557302131417487  1.0000
