data_image0
_chemical_formula_structural       Ca2BeCl6
_chemical_formula_sum              "Ca2 Be1 Cl6"
_cell_length_a       6.472696167280372
_cell_length_b       6.472696136186827
_cell_length_c       6.472696266345526
_cell_angle_alpha    59.999999785383885
_cell_angle_beta     59.999999265007354
_cell_angle_gamma    60.00000051790396

_space_group_name_H-M_alt    "P 1"
_space_group_IT_number       1

loop_
  _space_group_symop_operation_xyz
  'x, y, z'

loop_
  _atom_site_type_symbol
  _atom_site_label
  _atom_site_symmetry_multiplicity
  _atom_site_fract_x
  _atom_site_fract_y
  _atom_site_fract_z
  _atom_site_occupancy
  Ca  Ca1       1.0  0.2500000101310751  0.25000001337387273  0.2499999742719938  1.0000
  Ca  Ca2       1.0  0.7499999706940883  0.7500000211999068  0.7500000301042593  1.0000
  Be  Be1       1.0  1.3118416033591782e-08  0.9999999981078289  0.9999999820272677  1.0000
  Cl  Cl1       1.0  0.2446447119068976  0.24464469899557376  0.7553552862538805  1.0000
  Cl  Cl2       1.0  0.755355320581909  0.7553552769209014  0.2446446752706661  1.0000
  Cl  Cl3       1.0  0.7553552479117371  0.2446447590246025  0.24464472395434794  1.0000
  Cl  Cl4       1.0  0.24464469975720005  0.7553552679804925  0.7553553177788239  1.0000
  Cl  Cl5       1.0  0.24464472934090772  0.7553552630383019  0.24464471995018408  1.0000
  Cl  Cl6       1.0  0.7553553111308765  0.24464469963297564  0.7553552920989602  1.0000
