data_image0
_chemical_formula_structural       Ca2BeF6
_chemical_formula_sum              "Ca2 Be1 F6"
_cell_length_a       5.157330253586502
_cell_length_b       5.157330354394733
_cell_length_c       5.157330025411952
_cell_angle_alpha    59.99999934917011
_cell_angle_beta     59.999999201627034
_cell_angle_gamma    59.99999833902486

_space_group_name_H-M_alt    "P 1"
_space_group_IT_number       1

loop_
  _space_group_symop_operation_xyz
  'x, y, z'

loop_
  _atom_site_type_symbol
  _atom_site_label
  _atom_site_symmetry_multiplicity
  _atom_site_fract_x
  _atom_site_fract_y
  _atom_site_fract_z
  _atom_site_occupancy
  Ca  Ca1       1.0  0.2500000897794728  0.2499999985333866  0.2499999361338505  1.0000
  Ca  Ca2       1.0  0.7499999338334283  0.7500000953403061  0.7499999010771357  1.0000
  Be  Be1       1.0  0.9999999927165859  6.886819150895449e-08  0.999999988597488  1.0000
  F   F1        1.0  0.23744452302815688  0.23744433047755575  0.7625555864521475  1.0000
  F   F2        1.0  0.7625554810473589  0.7625556137859243  0.2374444749397629  1.0000
  F   F3        1.0  0.7625555869681331  0.23744432974318477  0.23744452134218313  1.0000
  F   F4        1.0  0.23744444634954992  0.7625556073959989  0.7625555425637058  1.0000
  F   F5        1.0  0.23744441367380983  0.7625555599740806  0.23744447925946374  1.0000
  F   F6        1.0  0.7625555809259468  0.23744437241557306  0.7625556063801542  1.0000
