data_image0
_chemical_formula_structural       Ca2BeBr6
_chemical_formula_sum              "Ca2 Be1 Br6"
_cell_length_a       6.8777831212079095
_cell_length_b       6.877783186643618
_cell_length_c       6.877783284178496
_cell_angle_alpha    60.00000000225795
_cell_angle_beta     59.999999493824156
_cell_angle_gamma    59.999999982932934

_space_group_name_H-M_alt    "P 1"
_space_group_IT_number       1

loop_
  _space_group_symop_operation_xyz
  'x, y, z'

loop_
  _atom_site_type_symbol
  _atom_site_label
  _atom_site_symmetry_multiplicity
  _atom_site_fract_x
  _atom_site_fract_y
  _atom_site_fract_z
  _atom_site_occupancy
  Ca  Ca1       1.0  0.250000036278101  0.2500000114723965  0.25000001213113227  1.0000
  Ca  Ca2       1.0  0.7499999435063356  0.7500000468822732  0.7500001171867091  1.0000
  Be  Be1       1.0  1.8060367035606296e-08  2.1368714491177964e-08  1.5180423335912832e-08  1.0000
  Br  Br1       1.0  0.24575810882513707  0.2457580549338329  0.7542419334437204  1.0000
  Br  Br2       1.0  0.7542418433872502  0.7542418645241926  0.245758133712784  1.0000
  Br  Br3       1.0  0.7542419961838233  0.2457580622199887  0.2457580304778384  1.0000
  Br  Br4       1.0  0.2457581233409403  0.7542418287464171  0.7542418814848346  1.0000
  Br  Br5       1.0  0.245758087014152  0.7542419636787355  0.2457580438014475  1.0000
  Br  Br6       1.0  0.7542418481008659  0.24575814809771873  0.7542418237898516  1.0000
