data_image0
_chemical_formula_structural       Ca2CrI6
_chemical_formula_sum              "Ca2 Cr1 I6"
_cell_length_a       7.764762197285164
_cell_length_b       7.76476217383884
_cell_length_c       7.764762115655179
_cell_angle_alpha    59.99999970230575
_cell_angle_beta     60.00000141696663
_cell_angle_gamma    59.99999863690142

_space_group_name_H-M_alt    "P 1"
_space_group_IT_number       1

loop_
  _space_group_symop_operation_xyz
  'x, y, z'

loop_
  _atom_site_type_symbol
  _atom_site_label
  _atom_site_symmetry_multiplicity
  _atom_site_fract_x
  _atom_site_fract_y
  _atom_site_fract_z
  _atom_site_occupancy
  Ca  Ca1       1.0  0.25000011702139097  0.2500000406826122  0.24999981938755964  1.0000
  Ca  Ca2       1.0  0.7499999104486308  0.7499999627393755  0.750000192136686  1.0000
  Cr  Cr1       1.0  2.799982068144996e-08  0.9999999873815074  0.9999999871578584  1.0000
  I   I1        1.0  0.2471831976763781  0.2471832174919996  0.7528167888020817  1.0000
  I   I2        1.0  0.7528167993453854  0.7528167969711699  0.24718317060796768  1.0000
  I   I3        1.0  0.7528167845324676  0.24718324201849257  0.2471831885927659  1.0000
  I   I4        1.0  0.24718319263118055  0.7528167740219878  0.7528168572298531  1.0000
  I   I5        1.0  0.24718319603478198  0.752816796542505  0.24718315175785655  1.0000
  I   I6        1.0  0.7528167773892193  0.2471831816424997  0.7528168388780256  1.0000
