data_image0
_chemical_formula_structural       Ca2CF6
_chemical_formula_sum              "Ca2 C1 F6"
_cell_length_a       5.3189224312932675
_cell_length_b       5.318922529661362
_cell_length_c       5.318922450896939
_cell_angle_alpha    59.99999934843575
_cell_angle_beta     60.00000140956988
_cell_angle_gamma    59.9999998472744

_space_group_name_H-M_alt    "P 1"
_space_group_IT_number       1

loop_
  _space_group_symop_operation_xyz
  'x, y, z'

loop_
  _atom_site_type_symbol
  _atom_site_label
  _atom_site_symmetry_multiplicity
  _atom_site_fract_x
  _atom_site_fract_y
  _atom_site_fract_z
  _atom_site_occupancy
  Ca  Ca1       1.0  0.250000088770944  0.24999994907392287  0.2499999751499605  1.0000
  Ca  Ca2       1.0  0.7500002065764423  0.7500000199181476  0.7499998858906051  1.0000
  C   C1        1.0  3.769593372194726e-08  0.9999999585528693  0.9999999793146387  1.0000
  F   F1        1.0  0.24676186258875307  0.24676188722293757  0.7532380880513644  1.0000
  F   F2        1.0  0.7532380494033513  0.7532380725586622  0.2467618959489511  1.0000
  F   F3        1.0  0.7532380460128322  0.246761880643228  0.2467619384890059  1.0000
  F   F4        1.0  0.24676187731549004  0.753238129795973  0.7532381912419244  1.0000
  F   F5        1.0  0.24676185280813903  0.7532381277674273  0.24676190693841196  1.0000
  F   F6        1.0  0.7532380296449949  0.24676190109272247  0.7532381569363553  1.0000
