data_image0
_chemical_formula_structural       Ca2CdI6
_chemical_formula_sum              "Ca2 Cd1 I6"
_cell_length_a       7.895544827237019
_cell_length_b       7.895544851769091
_cell_length_c       7.8955446489774594
_cell_angle_alpha    60.00000050586764
_cell_angle_beta     60.000000360497204
_cell_angle_gamma    59.999999258498285

_space_group_name_H-M_alt    "P 1"
_space_group_IT_number       1

loop_
  _space_group_symop_operation_xyz
  'x, y, z'

loop_
  _atom_site_type_symbol
  _atom_site_label
  _atom_site_symmetry_multiplicity
  _atom_site_fract_x
  _atom_site_fract_y
  _atom_site_fract_z
  _atom_site_occupancy
  Ca  Ca1       1.0  0.2499999656973029  0.2499999465663599  0.2500000786497704  1.0000
  Ca  Ca2       1.0  0.7500000397752368  0.7500000522113879  0.7499998987678211  1.0000
  Cd  Cd1       1.0  1.2054623433798319e-08  0.9999999813857832  0.9999999348867948  1.0000
  I   I1        1.0  0.2597525709523911  0.25975253531474457  0.7402474328972977  1.0000
  I   I2        1.0  0.7402474193783768  0.7402474650141881  0.2597525525821242  1.0000
  I   I3        1.0  0.7402474159326283  0.25975258416781055  0.2597526192175556  1.0000
  I   I4        1.0  0.25975250948668993  0.7402474968227293  0.7402474546436052  1.0000
  I   I5        1.0  0.25975262577988245  0.7402474080250033  0.25975254679235654  1.0000
  I   I6        1.0  0.740247444249251  0.25975252870535404  0.740247478765579  1.0000
