data_image0
_chemical_formula_structural       Ca2CoBr6
_chemical_formula_sum              "Ca2 Co1 Br6"
_cell_length_a       6.9846933461346215
_cell_length_b       6.98469335751173
_cell_length_c       6.984693380148286
_cell_angle_alpha    59.999999388105685
_cell_angle_beta     60.00000095616947
_cell_angle_gamma    60.00000098043828

_space_group_name_H-M_alt    "P 1"
_space_group_IT_number       1

loop_
  _space_group_symop_operation_xyz
  'x, y, z'

loop_
  _atom_site_type_symbol
  _atom_site_label
  _atom_site_symmetry_multiplicity
  _atom_site_fract_x
  _atom_site_fract_y
  _atom_site_fract_z
  _atom_site_occupancy
  Ca  Ca1       1.0  0.24999997469395607  0.25000007075395  0.2500000242372765  1.0000
  Ca  Ca2       1.0  0.7500000368195958  0.7499999930781297  0.7499999813329183  1.0000
  Co  Co1       1.0  0.9999999892958225  1.2274288105600428e-08  2.4985581912742377e-08  1.0000
  Br  Br1       1.0  0.248583652736842  0.2485835778029846  0.7514163472037226  1.0000
  Br  Br2       1.0  0.7514163571407272  0.7514164562201096  0.24858359391364018  1.0000
  Br  Br3       1.0  0.7514163991466418  0.24858358482010265  0.24858357398305217  1.0000
  Br  Br4       1.0  0.24858356604620896  0.7514163650364408  0.7514164487403701  1.0000
  Br  Br5       1.0  0.24858361803279527  0.7514163805569744  0.2485835748249083  1.0000
  Br  Br6       1.0  0.7514164057063781  0.24858356228569087  0.7514164278591006  1.0000
