data_image0
_chemical_formula_structural       Ca2CdCl6
_chemical_formula_sum              "Ca2 Cd1 Cl6"
_cell_length_a       6.804392055688993
_cell_length_b       6.80439199423917
_cell_length_c       6.80439213862808
_cell_angle_alpha    59.99999826688098
_cell_angle_beta     59.99999893500794
_cell_angle_gamma    59.999999336207495

_space_group_name_H-M_alt    "P 1"
_space_group_IT_number       1

loop_
  _space_group_symop_operation_xyz
  'x, y, z'

loop_
  _atom_site_type_symbol
  _atom_site_label
  _atom_site_symmetry_multiplicity
  _atom_site_fract_x
  _atom_site_fract_y
  _atom_site_fract_z
  _atom_site_occupancy
  Ca  Ca1       1.0  0.2500000098106945  0.24999996892959658  0.2500000236980794  1.0000
  Ca  Ca2       1.0  0.7500000187354264  0.7499999337877836  0.749999993870037  1.0000
  Cd  Cd1       1.0  1.9199283820769863e-08  0.9999999424021478  8.91181159169663e-09  1.0000
  Cl  Cl1       1.0  0.2587874528074272  0.2587875049329405  0.7412124915668905  1.0000
  Cl  Cl2       1.0  0.7412125892263292  0.7412125507787358  0.2587873942621723  1.0000
  Cl  Cl3       1.0  0.741212490955422  0.2587875208455286  0.258787464877724  1.0000
  Cl  Cl4       1.0  0.25878743268292387  0.7412125438658103  0.7412126005685276  1.0000
  Cl  Cl5       1.0  0.2587874545803881  0.7412125590983517  0.2587874640617108  1.0000
  Cl  Cl6       1.0  0.7412125307673443  0.25878747321419565  0.7412125588061023  1.0000
