data_image0
_chemical_formula_structural       Ca2CoCl6
_chemical_formula_sum              "Ca2 Co1 Cl6"
_cell_length_a       6.615740543632028
_cell_length_b       6.615740361032236
_cell_length_c       6.6157405343404765
_cell_angle_alpha    59.99999906548818
_cell_angle_beta     59.99999955402026
_cell_angle_gamma    59.99999920104658

_space_group_name_H-M_alt    "P 1"
_space_group_IT_number       1

loop_
  _space_group_symop_operation_xyz
  'x, y, z'

loop_
  _atom_site_type_symbol
  _atom_site_label
  _atom_site_symmetry_multiplicity
  _atom_site_fract_x
  _atom_site_fract_y
  _atom_site_fract_z
  _atom_site_occupancy
  Ca  Ca1       1.0  0.25000001602462024  0.24999998091586773  0.2500000764760439  1.0000
  Ca  Ca2       1.0  0.7499999980021596  0.7500000667819556  0.7500000171074024  1.0000
  Co  Co1       1.0  1.5620743034159934e-08  0.9999999740823741  4.1425559381322095e-08  1.0000
  Cl  Cl1       1.0  0.24597051007417015  0.2459704718773732  0.7540295224419034  1.0000
  Cl  Cl2       1.0  0.7540295127158598  0.7540295128776443  0.24597048335378066  1.0000
  Cl  Cl3       1.0  0.7540295159533693  0.2459704505322053  0.24597049050574218  1.0000
  Cl  Cl4       1.0  0.24597047328720162  0.7540294934951142  0.7540294768511913  1.0000
  Cl  Cl5       1.0  0.24597051922220925  0.7540294836847415  0.24597046636723746  1.0000
  Cl  Cl6       1.0  0.7540294414206401  0.24597055660804568  0.7540294354133449  1.0000
