data_image0
_chemical_formula_structural       Ca2CdBr6
_chemical_formula_sum              "Ca2 Cd1 Br6"
_cell_length_a       7.213403841369226
_cell_length_b       7.2134038022084495
_cell_length_c       7.2134038296837
_cell_angle_alpha    60.00000075962701
_cell_angle_beta     60.00000017630627
_cell_angle_gamma    60.00000088852656

_space_group_name_H-M_alt    "P 1"
_space_group_IT_number       1

loop_
  _space_group_symop_operation_xyz
  'x, y, z'

loop_
  _atom_site_type_symbol
  _atom_site_label
  _atom_site_symmetry_multiplicity
  _atom_site_fract_x
  _atom_site_fract_y
  _atom_site_fract_z
  _atom_site_occupancy
  Ca  Ca1       1.0  0.24999998482354727  0.2499999707695751  0.25000010522952315  1.0000
  Ca  Ca2       1.0  0.7500000075040834  0.7500000413471235  0.7499998947113278  1.0000
  Cd  Cd1       1.0  3.783587832999754e-08  3.056172650027686e-08  0.9999999325298039  1.0000
  Br  Br1       1.0  0.2606035234749576  0.26060348721010695  0.7393965119366475  1.0000
  Br  Br2       1.0  0.7393964371785484  0.73939642303417  0.2606035977530264  1.0000
  Br  Br3       1.0  0.7393964864247774  0.260603513474796  0.26060353023813987  1.0000
  Br  Br4       1.0  0.260603511545772  0.7393965105270185  0.7393964678702342  1.0000
  Br  Br5       1.0  0.2606034913002298  0.7393964974527565  0.2606034969827523  1.0000
  Br  Br6       1.0  0.7393965241816941  0.26060353164267896  0.7393964565517303  1.0000
