data_image0
_chemical_formula_structural       Ca2CBr6
_chemical_formula_sum              "Ca2 C1 Br6"
_cell_length_a       7.096068082706443
_cell_length_b       7.096068062237338
_cell_length_c       7.096068082187661
_cell_angle_alpha    60.000000336223465
_cell_angle_beta     60.00000018882677
_cell_angle_gamma    60.00000121085444

_space_group_name_H-M_alt    "P 1"
_space_group_IT_number       1

loop_
  _space_group_symop_operation_xyz
  'x, y, z'

loop_
  _atom_site_type_symbol
  _atom_site_label
  _atom_site_symmetry_multiplicity
  _atom_site_fract_x
  _atom_site_fract_y
  _atom_site_fract_z
  _atom_site_occupancy
  Ca  Ca1       1.0  0.24999999032726913  0.2500000433699957  0.2500000489850167  1.0000
  Ca  Ca2       1.0  0.7500000464440311  0.7500000697017862  0.7499998293971913  1.0000
  C   C1        1.0  0.9999999601735083  1.2081639470688712e-08  0.9999999800508791  1.0000
  Br  Br1       1.0  0.2514588067264957  0.2514588241153947  0.7485411967145624  1.0000
  Br  Br2       1.0  0.7485412030417188  0.748541140524809  0.25145884689268877  1.0000
  Br  Br3       1.0  0.7485411773586187  0.2514587876257596  0.2514588481603119  1.0000
  Br  Br4       1.0  0.2514588399874147  0.7485411493992667  0.7485411970102317  1.0000
  Br  Br5       1.0  0.2514587854520596  0.7485411783977736  0.25145881440900036  1.0000
  Br  Br6       1.0  0.7485411882207508  0.2514588017759669  0.748541222568411  1.0000
