data_image0
_chemical_formula_structural       Ca2CI6
_chemical_formula_sum              "Ca2 C1 I6"
_cell_length_a       7.64379066462209
_cell_length_b       7.643790666059443
_cell_length_c       7.643790639589377
_cell_angle_alpha    60.00000023891459
_cell_angle_beta     60.00000039031314
_cell_angle_gamma    60.000000105094685

_space_group_name_H-M_alt    "P 1"
_space_group_IT_number       1

loop_
  _space_group_symop_operation_xyz
  'x, y, z'

loop_
  _atom_site_type_symbol
  _atom_site_label
  _atom_site_symmetry_multiplicity
  _atom_site_fract_x
  _atom_site_fract_y
  _atom_site_fract_z
  _atom_site_occupancy
  Ca  Ca1       1.0  0.24999999710449675  0.24999999528362576  0.25000000067577505  1.0000
  Ca  Ca2       1.0  0.7499999954788638  0.7500000050781678  0.7500000034135073  1.0000
  C   C1        1.0  1.1291832916657211e-08  0.9999999887840805  0.9999999986537919  1.0000
  I   I1        1.0  0.252127878792296  0.25212788611155884  0.7478721183760575  1.0000
  I   I2        1.0  0.7478721231140807  0.7478721270684286  0.252127872026117  1.0000
  I   I3        1.0  0.7478721166439404  0.25212787915335055  0.2521278853818598  1.0000
  I   I4        1.0  0.2521278850948873  0.7478721164016204  0.7478721178413517  1.0000
  I   I5        1.0  0.2521278811643367  0.7478721194355064  0.25212788108180006  1.0000
  I   I6        1.0  0.7478721129296623  0.25212788092628724  0.7478721209439118  1.0000
