data_image0
_chemical_formula_structural       Ca2CoF6
_chemical_formula_sum              "Ca2 Co1 F6"
_cell_length_a       5.389269390395238
_cell_length_b       5.389269544880849
_cell_length_c       5.38926946789777
_cell_angle_alpha    60.000000149913625
_cell_angle_beta     59.99999980156981
_cell_angle_gamma    59.99999947412065

_space_group_name_H-M_alt    "P 1"
_space_group_IT_number       1

loop_
  _space_group_symop_operation_xyz
  'x, y, z'

loop_
  _atom_site_type_symbol
  _atom_site_label
  _atom_site_symmetry_multiplicity
  _atom_site_fract_x
  _atom_site_fract_y
  _atom_site_fract_z
  _atom_site_occupancy
  Ca  Ca1       1.0  0.25000010370210446  0.2500000171866  0.24999993317065677  1.0000
  Ca  Ca2       1.0  0.7499999551353294  0.7499999174786518  0.749999979594169  1.0000
  Co  Co1       1.0  0.9999999977274383  6.817685427289503e-09  6.823792236882143e-08  1.0000
  F   F1        1.0  0.24916043320856346  0.24916034639666454  0.750839608646569  1.0000
  F   F2        1.0  0.7508396766611686  0.7508396087216435  0.2491603481637593  1.0000
  F   F3        1.0  0.7508395184475702  0.24916046891496726  0.24916046289926067  1.0000
  F   F4        1.0  0.24916038960630543  0.7508395452899524  0.7508396599081816  1.0000
  F   F5        1.0  0.2491603500392956  0.7508396726412716  0.24916040399944006  1.0000
  F   F6        1.0  0.750839559614992  0.24916040746794407  0.750839540323601  1.0000
