data_image0
_chemical_formula_structural       Ca2CoI6
_chemical_formula_sum              "Ca2 Co1 I6"
_cell_length_a       7.6530830249472945
_cell_length_b       7.653082793935034
_cell_length_c       7.653083039886444
_cell_angle_alpha    60.000001705045555
_cell_angle_beta     59.99999661557307
_cell_angle_gamma    60.000001601050066

_space_group_name_H-M_alt    "P 1"
_space_group_IT_number       1

loop_
  _space_group_symop_operation_xyz
  'x, y, z'

loop_
  _atom_site_type_symbol
  _atom_site_label
  _atom_site_symmetry_multiplicity
  _atom_site_fract_x
  _atom_site_fract_y
  _atom_site_fract_z
  _atom_site_occupancy
  Ca  Ca1       1.0  0.2499999409189014  0.24999991581760464  0.25000011110333786  1.0000
  Ca  Ca2       1.0  0.7500000679098445  0.7500000259100155  0.7499999512918516  1.0000
  Co  Co1       1.0  0.9999999823205619  3.040624683575525e-08  1.715652968138649e-08  1.0000
  I   I1        1.0  0.2476744166418556  0.24767442801750666  0.7523255701191603  1.0000
  I   I2        1.0  0.7523255709407017  0.752325572922274  0.2476744197198641  1.0000
  I   I3        1.0  0.7523255683468967  0.2476744208981124  0.2476744517900757  1.0000
  I   I4        1.0  0.24767444567765018  0.7523255912439694  0.7523255035468477  1.0000
  I   I5        1.0  0.2476744186336956  0.752325596282612  0.2476744491068238  1.0000
  I   I6        1.0  0.7523255902394699  0.24767442226078556  0.7523255265117399  1.0000
