data_image0
_chemical_formula_structural       Ca2CCl6
_chemical_formula_sum              "Ca2 C1 Cl6"
_cell_length_a       6.667590974129319
_cell_length_b       6.66759091984529
_cell_length_c       6.667591174066666
_cell_angle_alpha    59.999999221311775
_cell_angle_beta     59.99999850338199
_cell_angle_gamma    60.00000012165179

_space_group_name_H-M_alt    "P 1"
_space_group_IT_number       1

loop_
  _space_group_symop_operation_xyz
  'x, y, z'

loop_
  _atom_site_type_symbol
  _atom_site_label
  _atom_site_symmetry_multiplicity
  _atom_site_fract_x
  _atom_site_fract_y
  _atom_site_fract_z
  _atom_site_occupancy
  Ca  Ca1       1.0  0.2500000435632986  0.24999999685031854  0.24999997719678774  1.0000
  Ca  Ca2       1.0  0.7499999789028401  0.7499999887140916  0.7500000084023237  1.0000
  C   C1        1.0  6.460225664481885e-08  0.9999999724470602  0.9999998974869884  1.0000
  Cl  Cl1       1.0  0.2530286200627434  0.25302869319252014  0.7469713517189416  1.0000
  Cl  Cl2       1.0  0.7469712821911161  0.7469712997193396  0.25302873680613763  1.0000
  Cl  Cl3       1.0  0.7469713045099382  0.2530287055667986  0.25302869994364097  1.0000
  Cl  Cl4       1.0  0.25302873189771413  0.7469713057136891  0.7469713033214754  1.0000
  Cl  Cl5       1.0  0.25302869925630594  0.7469713020695739  0.25302872150256295  1.0000
  Cl  Cl6       1.0  0.7469712777445225  0.25302873676385307  0.7469713066882478  1.0000
