data_image0
_chemical_formula_structural       Ca2CdF6
_chemical_formula_sum              "Ca2 Cd1 F6"
_cell_length_a       5.718318298828528
_cell_length_b       5.718318121896652
_cell_length_c       5.718318116427934
_cell_angle_alpha    60.00000078568842
_cell_angle_beta     59.99999856746126
_cell_angle_gamma    59.999999400750184

_space_group_name_H-M_alt    "P 1"
_space_group_IT_number       1

loop_
  _space_group_symop_operation_xyz
  'x, y, z'

loop_
  _atom_site_type_symbol
  _atom_site_label
  _atom_site_symmetry_multiplicity
  _atom_site_fract_x
  _atom_site_fract_y
  _atom_site_fract_z
  _atom_site_occupancy
  Ca  Ca1       1.0  0.2500000083989709  0.25000012272152333  0.2499999979296809  1.0000
  Ca  Ca2       1.0  0.750000024490201  0.7499999462315214  0.7500000582125811  1.0000
  Cd  Cd1       1.0  6.547866968947498e-09  0.999999974298495  2.8813244172341704e-08  1.0000
  F   F1        1.0  0.2627751889940644  0.2627751526991454  0.7372248245864048  1.0000
  F   F2        1.0  0.7372248170947937  0.7372248391493802  0.2627751086316788  1.0000
  F   F3        1.0  0.7372249078207916  0.2627751385748415  0.2627750796377527  1.0000
  F   F4        1.0  0.26277508211365697  0.7372248532736853  0.7372249228643434  1.0000
  F   F5        1.0  0.2627751032919922  0.737224789071415  0.26277517002644113  1.0000
  F   F6        1.0  0.7372249025939153  0.26277514280693204  0.7372248230072277  1.0000
