data_image0
_chemical_formula_structural       Ca2CuBr6
_chemical_formula_sum              "Ca2 Cu1 Br6"
_cell_length_a       6.972219211449635
_cell_length_b       6.972219251784828
_cell_length_c       6.972219224994766
_cell_angle_alpha    60.000001287138645
_cell_angle_beta     59.99999996497677
_cell_angle_gamma    60.00000112448169

_space_group_name_H-M_alt    "P 1"
_space_group_IT_number       1

loop_
  _space_group_symop_operation_xyz
  'x, y, z'

loop_
  _atom_site_type_symbol
  _atom_site_label
  _atom_site_symmetry_multiplicity
  _atom_site_fract_x
  _atom_site_fract_y
  _atom_site_fract_z
  _atom_site_occupancy
  Ca  Ca1       1.0  0.24999993160519898  0.2500000850767794  0.24999993187447347  1.0000
  Ca  Ca2       1.0  0.750000001437773  0.7499999285014562  0.7500000363939796  1.0000
  Cu  Cu1       1.0  3.8794566693799583e-08  0.9999999631112554  2.1995305681923843e-08  1.0000
  Br  Br1       1.0  0.25316942044048385  0.2531693653089582  0.7468306000787883  1.0000
  Br  Br2       1.0  0.7468306738340794  0.7468306465126723  0.2531693730737217  1.0000
  Br  Br3       1.0  0.7468306254894046  0.2531693502259493  0.2531693886588342  1.0000
  Br  Br4       1.0  0.25316936575403504  0.7468305930880117  0.7468306917770253  1.0000
  Br  Br5       1.0  0.2531693209459664  0.7468306674546221  0.2531693592840132  1.0000
  Br  Br6       1.0  0.746830614990211  0.2531693970652142  0.7468306064495177  1.0000
