data_image0
_chemical_formula_structural       Ca2CuI6
_chemical_formula_sum              "Ca2 Cu1 I6"
_cell_length_a       7.636643129709321
_cell_length_b       7.636642892476824
_cell_length_c       7.636643068935954
_cell_angle_alpha    60.00000008111125
_cell_angle_beta     59.999998288666724
_cell_angle_gamma    60.00000069836764

_space_group_name_H-M_alt    "P 1"
_space_group_IT_number       1

loop_
  _space_group_symop_operation_xyz
  'x, y, z'

loop_
  _atom_site_type_symbol
  _atom_site_label
  _atom_site_symmetry_multiplicity
  _atom_site_fract_x
  _atom_site_fract_y
  _atom_site_fract_z
  _atom_site_occupancy
  Ca  Ca1       1.0  0.250000157147429  0.24999990196093017  0.25000001094014906  1.0000
  Ca  Ca2       1.0  0.749999865407771  0.7500001132413521  0.7499999933539915  1.0000
  Cu  Cu1       1.0  0.9999999895833377  1.7641513343373125e-08  2.3886568509892465e-08  1.0000
  I   I1        1.0  0.25295732676352917  0.25295721991198883  0.7470427442851755  1.0000
  I   I2        1.0  0.7470426694762019  0.7470427744412321  0.2529572901386097  1.0000
  I   I3        1.0  0.7470426865258317  0.2529572591438073  0.2529572330085986  1.0000
  I   I4        1.0  0.2529573213072031  0.7470426822848735  0.747042753988058  1.0000
  I   I5        1.0  0.25295730544450007  0.7470427412211688  0.2529572087545617  1.0000
  I   I6        1.0  0.7470426754755283  0.2529572900188508  0.7470427507213574  1.0000
