data_image0
_chemical_formula_structural       Ca2CrBr6
_chemical_formula_sum              "Ca2 Cr1 Br6"
_cell_length_a       7.108289163390612
_cell_length_b       7.108289131889892
_cell_length_c       7.108289271281054
_cell_angle_alpha    59.99999962685609
_cell_angle_beta     59.99999863761105
_cell_angle_gamma    59.99999886692112

_space_group_name_H-M_alt    "P 1"
_space_group_IT_number       1

loop_
  _space_group_symop_operation_xyz
  'x, y, z'

loop_
  _atom_site_type_symbol
  _atom_site_label
  _atom_site_symmetry_multiplicity
  _atom_site_fract_x
  _atom_site_fract_y
  _atom_site_fract_z
  _atom_site_occupancy
  Ca  Ca1       1.0  0.24999994792169064  0.25000002976551317  0.25000009929377803  1.0000
  Ca  Ca2       1.0  0.7500000818064969  0.7499999014915808  0.7499998999589125  1.0000
  Cr  Cr1       1.0  3.2131401546307105e-08  0.9999997915192725  4.22995026129711e-07  1.0000
  Br  Br1       1.0  0.24514311109518627  0.24514316081583176  0.7548568135426121  1.0000
  Br  Br2       1.0  0.7548569816877327  0.7548569565232347  0.24514302737832827  1.0000
  Br  Br3       1.0  0.7548568890867694  0.245143117552097  0.24514306931012564  1.0000
  Br  Br4       1.0  0.24514312264020066  0.7548568774553025  0.7548568775250477  1.0000
  Br  Br5       1.0  0.2451429981527382  0.7548569327875304  0.2451430158719025  1.0000
  Br  Br6       1.0  0.7548568339311033  0.24514322590308651  0.7548567785670873  1.0000
