data_image0
_chemical_formula_structural       Ca2CrF6
_chemical_formula_sum              "Ca2 Cr1 F6"
_cell_length_a       5.5897635716946406
_cell_length_b       5.589763163825898
_cell_length_c       5.589763142094521
_cell_angle_alpha    60.00000274761391
_cell_angle_beta     60.00000121227545
_cell_angle_gamma    60.0000011502472

_space_group_name_H-M_alt    "P 1"
_space_group_IT_number       1

loop_
  _space_group_symop_operation_xyz
  'x, y, z'

loop_
  _atom_site_type_symbol
  _atom_site_label
  _atom_site_symmetry_multiplicity
  _atom_site_fract_x
  _atom_site_fract_y
  _atom_site_fract_z
  _atom_site_occupancy
  Ca  Ca1       1.0  0.2499999451312286  0.2500001806965808  0.24999993396709913  1.0000
  Ca  Ca2       1.0  0.7499999519812368  0.7500000250020344  0.75000000036238  1.0000
  Cr  Cr1       1.0  0.9999999838069965  5.477623798972491e-08  0.9999999163049396  1.0000
  F   F1        1.0  0.24547313940072646  0.24547306444662492  0.754526937661502  1.0000
  F   F2        1.0  0.7545269306148454  0.7545267402899132  0.24547313753222122  1.0000
  F   F3        1.0  0.7545268750632979  0.24547316748044437  0.24547316047769044  1.0000
  F   F4        1.0  0.24547312246151884  0.7545267555727763  0.7545270062980843  1.0000
  F   F5        1.0  0.2454731847526574  0.7545267379006179  0.24547318015715272  1.0000
  F   F6        1.0  0.7545268536072545  0.24547317419735049  0.7545268410828265  1.0000
