data_image0
_chemical_formula_structural       Ca2CuCl6
_chemical_formula_sum              "Ca2 Cu1 Cl6"
_cell_length_a       6.585231207195975
_cell_length_b       6.585231197666552
_cell_length_c       6.585231270335009
_cell_angle_alpha    59.999999695438085
_cell_angle_beta     59.99999817068349
_cell_angle_gamma    59.99999964144972

_space_group_name_H-M_alt    "P 1"
_space_group_IT_number       1

loop_
  _space_group_symop_operation_xyz
  'x, y, z'

loop_
  _atom_site_type_symbol
  _atom_site_label
  _atom_site_symmetry_multiplicity
  _atom_site_fract_x
  _atom_site_fract_y
  _atom_site_fract_z
  _atom_site_occupancy
  Ca  Ca1       1.0  0.25000002603498833  0.25000002619731504  0.2500000341354635  1.0000
  Ca  Ca2       1.0  0.7499999660956187  0.7500000674329288  0.7499999179855454  1.0000
  Cu  Cu1       1.0  1.7923664316971003e-08  4.091638778224223e-08  0.9999999994324152  1.0000
  Cl  Cl1       1.0  0.2515657708240367  0.25156573960581363  0.7484342526041162  1.0000
  Cl  Cl2       1.0  0.7484342448128717  0.7484341940785517  0.2515657874778251  1.0000
  Cl  Cl3       1.0  0.7484342691401011  0.2515656922103268  0.25156575502306777  1.0000
  Cl  Cl4       1.0  0.25156579950812286  0.7484342507732172  0.748434212902788  1.0000
  Cl  Cl5       1.0  0.2515657051978807  0.7484342513131338  0.2515657603110087  1.0000
  Cl  Cl6       1.0  0.7484342114818969  0.25156575304499146  0.7484342665787278  1.0000
