data_image0
_chemical_formula_structural       Ca2CrCl6
_chemical_formula_sum              "Ca2 Cr1 Cl6"
_cell_length_a       6.782765903922607
_cell_length_b       6.782765610831705
_cell_length_c       6.782765734725335
_cell_angle_alpha    59.999999182603105
_cell_angle_beta     60.00000033527074
_cell_angle_gamma    60.000000432316384

_space_group_name_H-M_alt    "P 1"
_space_group_IT_number       1

loop_
  _space_group_symop_operation_xyz
  'x, y, z'

loop_
  _atom_site_type_symbol
  _atom_site_label
  _atom_site_symmetry_multiplicity
  _atom_site_fract_x
  _atom_site_fract_y
  _atom_site_fract_z
  _atom_site_occupancy
  Ca  Ca1       1.0  0.2499999835054916  0.25000012141360933  0.24999984782114465  1.0000
  Ca  Ca2       1.0  0.7500000749159649  0.7500001493658816  0.7499999189499262  1.0000
  Cr  Cr1       1.0  3.5405234882393906e-08  7.764388943655443e-08  9.533089600403298e-08  1.0000
  Cl  Cl1       1.0  0.24309859993853108  0.24309856879678987  0.756901441656145  1.0000
  Cl  Cl2       1.0  0.756901394072036  0.7569013896014722  0.24309863440562213  1.0000
  Cl  Cl3       1.0  0.7569013115688006  0.24309855962125373  0.24309874795985104  1.0000
  Cl  Cl4       1.0  0.2430988125857961  0.756901120703548  0.7569013416193132  1.0000
  Cl  Cl5       1.0  0.24309863008002341  0.7569012672533849  0.2430987197452178  1.0000
  Cl  Cl6       1.0  0.7569011711281439  0.2430987435093573  0.7569012628854527  1.0000
