data_image0
_chemical_formula_structural       Ca2FeBr6
_chemical_formula_sum              "Ca2 Fe1 Br6"
_cell_length_a       6.91343494435952
_cell_length_b       6.9134370518015595
_cell_length_c       6.913436201630983
_cell_angle_alpha    59.99999832943282
_cell_angle_beta     60.000005109798195
_cell_angle_gamma    59.999993507086884

_space_group_name_H-M_alt    "P 1"
_space_group_IT_number       1

loop_
  _space_group_symop_operation_xyz
  'x, y, z'

loop_
  _atom_site_type_symbol
  _atom_site_label
  _atom_site_symmetry_multiplicity
  _atom_site_fract_x
  _atom_site_fract_y
  _atom_site_fract_z
  _atom_site_occupancy
  Ca  Ca1       1.0  0.2500009598505801  0.2500001997882445  0.249999318863724  1.0000
  Ca  Ca2       1.0  0.7499996401022392  0.7499997401669009  0.750000347278859  1.0000
  Fe  Fe1       1.0  0.9999997815851904  1.842404513878925e-07  2.0657324353476807e-07  1.0000
  Br  Br1       1.0  0.23619668903883825  0.2361978850911168  0.7638026037058091  1.0000
  Br  Br2       1.0  0.7638031508246308  0.763802120411214  0.2361973619746522  1.0000
  Br  Br3       1.0  0.7638027583388429  0.23619742085581663  0.23619730699924205  1.0000
  Br  Br4       1.0  0.23619705009728015  0.7638023933198852  0.763802949419092  1.0000
  Br  Br5       1.0  0.23619727704117477  0.7638023417591774  0.23619754309602453  1.0000
  Br  Br6       1.0  0.7638026777148484  0.23619759465296647  0.7638024532022378  1.0000
