data_image0
_chemical_formula_structural       Ca2FeCl6
_chemical_formula_sum              "Ca2 Fe1 Cl6"
_cell_length_a       6.606169261313111
_cell_length_b       6.606169421844572
_cell_length_c       6.606169552211762
_cell_angle_alpha    60.00000069228038
_cell_angle_beta     59.999999126357565
_cell_angle_gamma    60.00000026866014

_space_group_name_H-M_alt    "P 1"
_space_group_IT_number       1

loop_
  _space_group_symop_operation_xyz
  'x, y, z'

loop_
  _atom_site_type_symbol
  _atom_site_label
  _atom_site_symmetry_multiplicity
  _atom_site_fract_x
  _atom_site_fract_y
  _atom_site_fract_z
  _atom_site_occupancy
  Ca  Ca1       1.0  0.2500000547037783  0.2500000498944659  0.2500000942244494  1.0000
  Ca  Ca2       1.0  0.7499999565006036  0.7500000069299333  0.7500000340092229  1.0000
  Fe  Fe1       1.0  0.9999999737116674  0.9999999425278298  1.7811653602979048e-07  1.0000
  Cl  Cl1       1.0  0.2417765387553501  0.24177659508227597  0.7582234332419564  1.0000
  Cl  Cl2       1.0  0.7582234091364515  0.7582234209554178  0.24177653814572042  1.0000
  Cl  Cl3       1.0  0.7582234855353468  0.2417765730740113  0.2417764902921367  1.0000
  Cl  Cl4       1.0  0.2417766290625003  0.7582233780757447  0.7582233620683436  1.0000
  Cl  Cl5       1.0  0.24177655085412186  0.7582233676307368  0.24177654213649752  1.0000
  Cl  Cl6       1.0  0.7582233936296918  0.2417766743621306  0.7582233407770249  1.0000
