data_image0
_chemical_formula_structural       Ca2FeI6
_chemical_formula_sum              "Ca2 Fe1 I6"
_cell_length_a       7.6446343178717715
_cell_length_b       7.6446342685870325
_cell_length_c       7.64463423745695
_cell_angle_alpha    60.000003653873705
_cell_angle_beta     60.00000072832949
_cell_angle_gamma    59.99999949338158

_space_group_name_H-M_alt    "P 1"
_space_group_IT_number       1

loop_
  _space_group_symop_operation_xyz
  'x, y, z'

loop_
  _atom_site_type_symbol
  _atom_site_label
  _atom_site_symmetry_multiplicity
  _atom_site_fract_x
  _atom_site_fract_y
  _atom_site_fract_z
  _atom_site_occupancy
  Ca  Ca1       1.0  0.25000013964410556  0.25000013693021617  0.24999961678217675  1.0000
  Ca  Ca2       1.0  0.7500000386810077  0.7500000471146058  0.7500004336173309  1.0000
  Fe  Fe1       1.0  1.951306775046569e-08  5.927760003066287e-08  0.9999999200533489  1.0000
  I   I1        1.0  0.24424054603451054  0.24424050417641865  0.755759516435908  1.0000
  I   I2        1.0  0.7557593381963904  0.7557593658573172  0.24424050706515416  1.0000
  I   I3        1.0  0.7557594127140616  0.24424064253537855  0.24424049972310533  1.0000
  I   I4        1.0  0.24424049099846484  0.7557593412472692  0.7557594663194406  1.0000
  I   I5        1.0  0.24424064029405837  0.755759390466038  0.24424057642606978  1.0000
  I   I6        1.0  0.7557593776358369  0.24424051801803456  0.7557594630326785  1.0000
