data_image0
_chemical_formula_structural       Ca2GeCl6
_chemical_formula_sum              "Ca2 Ge1 Cl6"
_cell_length_a       6.932304378250383
_cell_length_b       6.932304488940928
_cell_length_c       6.93230432636102
_cell_angle_alpha    59.999998577755726
_cell_angle_beta     59.99999957453662
_cell_angle_gamma    59.99999853024524

_space_group_name_H-M_alt    "P 1"
_space_group_IT_number       1

loop_
  _space_group_symop_operation_xyz
  'x, y, z'

loop_
  _atom_site_type_symbol
  _atom_site_label
  _atom_site_symmetry_multiplicity
  _atom_site_fract_x
  _atom_site_fract_y
  _atom_site_fract_z
  _atom_site_occupancy
  Ca  Ca1       1.0  0.24999999013323881  0.2499997769407087  0.2500001495277075  1.0000
  Ca  Ca2       1.0  0.7500000550864143  0.749999956241409  0.7500001627711667  1.0000
  Ge  Ge1       1.0  0.9999999852426511  1.0423654932997291e-07  0.999999883134309  1.0000
  Cl  Cl1       1.0  0.25019784592316746  0.2501978257921408  0.7498021635659341  1.0000
  Cl  Cl2       1.0  0.749802080960837  0.7498022024324138  0.2501978613115354  1.0000
  Cl  Cl3       1.0  0.7498021519596992  0.2501979072596861  0.25019772281322894  1.0000
  Cl  Cl4       1.0  0.25019784393885713  0.7498022287348601  0.7498021011552676  1.0000
  Cl  Cl5       1.0  0.2501978271638458  0.7498021992785397  0.2501978185525714  1.0000
  Cl  Cl6       1.0  0.7498022245625054  0.2501978042119182  0.749802136075468  1.0000
