data_image0
_chemical_formula_structural       Ca2GeI6
_chemical_formula_sum              "Ca2 Ge1 I6"
_cell_length_a       7.890381900234431
_cell_length_b       7.890381763171988
_cell_length_c       7.890381631121848
_cell_angle_alpha    60.00000156386703
_cell_angle_beta     60.000000586825564
_cell_angle_gamma    59.99999881824838

_space_group_name_H-M_alt    "P 1"
_space_group_IT_number       1

loop_
  _space_group_symop_operation_xyz
  'x, y, z'

loop_
  _atom_site_type_symbol
  _atom_site_label
  _atom_site_symmetry_multiplicity
  _atom_site_fract_x
  _atom_site_fract_y
  _atom_site_fract_z
  _atom_site_occupancy
  Ca  Ca1       1.0  0.2500000517700143  0.2500000116506056  0.2500000242348532  1.0000
  Ca  Ca2       1.0  0.7499998608516346  0.7499999744160292  0.7500000208084443  1.0000
  Ge  Ge1       1.0  0.9999999751064936  2.6387396007856946e-08  0.9999999789752023  1.0000
  I   I1        1.0  0.25927393657077985  0.2592739243396587  0.7407260665192046  1.0000
  I   I2        1.0  0.7407260822749369  0.7407260679357736  0.25927396666546393  1.0000
  I   I3        1.0  0.7407260274514552  0.25927395797302566  0.2592739362033513  1.0000
  I   I4        1.0  0.2592739887920307  0.7407260684508006  0.7407260343157002  1.0000
  I   I5        1.0  0.25927400764346575  0.7407260153859881  0.25927391037304803  1.0000
  I   I6        1.0  0.740726066738973  0.25927395515864593  0.74072606281822  1.0000
