data_image0
_chemical_formula_structural       Ca2GeBr6
_chemical_formula_sum              "Ca2 Ge1 Br6"
_cell_length_a       7.273086667612267
_cell_length_b       7.273086567990829
_cell_length_c       7.27308660648041
_cell_angle_alpha    59.99999981345498
_cell_angle_beta     59.999999805507066
_cell_angle_gamma    60.0000009477236

_space_group_name_H-M_alt    "P 1"
_space_group_IT_number       1

loop_
  _space_group_symop_operation_xyz
  'x, y, z'

loop_
  _atom_site_type_symbol
  _atom_site_label
  _atom_site_symmetry_multiplicity
  _atom_site_fract_x
  _atom_site_fract_y
  _atom_site_fract_z
  _atom_site_occupancy
  Ca  Ca1       1.0  0.2499997873532495  0.2500000649882497  0.25000005047033685  1.0000
  Ca  Ca2       1.0  0.7500002343977878  0.7499999070108506  0.7499999774630945  1.0000
  Ge  Ge1       1.0  5.840683204080806e-08  0.9999999343263017  0.9999999995086367  1.0000
  Br  Br1       1.0  0.2548444033778862  0.25484440547646875  0.7451555758754774  1.0000
  Br  Br2       1.0  0.745155603121377  0.7451556170408612  0.2548443766775794  1.0000
  Br  Br3       1.0  0.7451556076900647  0.2548444611304965  0.2548444088819392  1.0000
  Br  Br4       1.0  0.2548443030365341  0.7451556438999413  0.7451556204224316  1.0000
  Br  Br5       1.0  0.25484437628464485  0.7451555740467048  0.2548444272120839  1.0000
  Br  Br6       1.0  0.7451556254847603  0.25484439121663116  0.7451555577078312  1.0000
