data_image0
_chemical_formula_structural       Ca2HgI6
_chemical_formula_sum              "Ca2 Hg1 I6"
_cell_length_a       7.9328809792488455
_cell_length_b       7.932881035299494
_cell_length_c       7.932880845707022
_cell_angle_alpha    59.99999979697057
_cell_angle_beta     60.00000100263422
_cell_angle_gamma    59.99999832456803

_space_group_name_H-M_alt    "P 1"
_space_group_IT_number       1

loop_
  _space_group_symop_operation_xyz
  'x, y, z'

loop_
  _atom_site_type_symbol
  _atom_site_label
  _atom_site_symmetry_multiplicity
  _atom_site_fract_x
  _atom_site_fract_y
  _atom_site_fract_z
  _atom_site_occupancy
  Ca  Ca1       1.0  0.25000005278130344  0.24999997516103073  0.24999995059847827  1.0000
  Ca  Ca2       1.0  0.7499999604268075  0.7499999995895312  0.7500000296737666  1.0000
  Hg  Hg1       1.0  1.5438840672392882e-09  0.9999999953683478  0.9999999876775469  1.0000
  I   I1        1.0  0.2626015462192998  0.2626015595081883  0.7373984440689976  1.0000
  I   I2        1.0  0.7373984249079063  0.7373984847171582  0.26260155276013314  1.0000
  I   I3        1.0  0.7373984738601264  0.26260154949442804  0.2626015339311756  1.0000
  I   I4        1.0  0.26260152099796735  0.7373984715726566  0.7373984689145231  1.0000
  I   I5        1.0  0.26260152804946846  0.7373984483867141  0.2626015560071534  1.0000
  I   I6        1.0  0.737398487643487  0.26260152327607883  0.7373984762501739  1.0000
