data_image0
_chemical_formula_structural       Ca2HgBr6
_chemical_formula_sum              "Ca2 Hg1 Br6"
_cell_length_a       7.340755908250557
_cell_length_b       7.3407559229220025
_cell_length_c       7.340756005029077
_cell_angle_alpha    59.99999867157238
_cell_angle_beta     60.00000011863915
_cell_angle_gamma    60.0000002773408

_space_group_name_H-M_alt    "P 1"
_space_group_IT_number       1

loop_
  _space_group_symop_operation_xyz
  'x, y, z'

loop_
  _atom_site_type_symbol
  _atom_site_label
  _atom_site_symmetry_multiplicity
  _atom_site_fract_x
  _atom_site_fract_y
  _atom_site_fract_z
  _atom_site_occupancy
  Ca  Ca1       1.0  0.25000004693639544  0.2499999675515287  0.25000005703916334  1.0000
  Ca  Ca2       1.0  0.7499999982986083  0.750000089517397  0.7499998833011571  1.0000
  Hg  Hg1       1.0  0.9999999460409258  2.5026267829006185e-08  6.759444570538775e-08  1.0000
  Br  Br1       1.0  0.2639565230699186  0.2639565125049275  0.7360434807222185  1.0000
  Br  Br2       1.0  0.7360434655534751  0.7360435162008919  0.26395656613156293  1.0000
  Br  Br3       1.0  0.7360434965907506  0.2639564435733016  0.26395651951875876  1.0000
  Br  Br4       1.0  0.26395659207223093  0.7360433982697111  0.7360434644905479  1.0000
  Br  Br5       1.0  0.2639564958242856  0.7360435044936223  0.26395651946180554  1.0000
  Br  Br6       1.0  0.7360434325480344  0.2639565492384669  0.7360434428350643  1.0000
