data_image0
_chemical_formula_structural       Ca2HgF6
_chemical_formula_sum              "Ca2 Hg1 F6"
_cell_length_a       5.838802334422105
_cell_length_b       5.838802170025069
_cell_length_c       5.838802539117161
_cell_angle_alpha    60.00000235445954
_cell_angle_beta     60.00000256865966
_cell_angle_gamma    60.00000070293338

_space_group_name_H-M_alt    "P 1"
_space_group_IT_number       1

loop_
  _space_group_symop_operation_xyz
  'x, y, z'

loop_
  _atom_site_type_symbol
  _atom_site_label
  _atom_site_symmetry_multiplicity
  _atom_site_fract_x
  _atom_site_fract_y
  _atom_site_fract_z
  _atom_site_occupancy
  Ca  Ca1       1.0  0.24999996215132583  0.24999991540740585  0.2500000099452895  1.0000
  Ca  Ca2       1.0  0.7500001807577923  0.7499999727625946  0.7499998481970657  1.0000
  Hg  Hg1       1.0  2.5229363719330135e-08  2.5171147128122814e-08  0.9999998206585513  1.0000
  F   F1        1.0  0.26502871080180695  0.26502877303389577  0.7349712900194368  1.0000
  F   F2        1.0  0.7349712979435004  0.7349713752380289  0.26502880144749685  1.0000
  F   F3        1.0  0.7349712571974617  0.2650286489060031  0.26502872243129744  1.0000
  F   F4        1.0  0.265028605045443  0.7349713693149593  0.7349713274809162  1.0000
  F   F5        1.0  0.26502856437264816  0.7349713019102991  0.26502887847776047  1.0000
  F   F6        1.0  0.7349713828502419  0.26502861562605595  0.7349712991743594  1.0000
