data_image0
_chemical_formula_structural       Ca2HgCl6
_chemical_formula_sum              "Ca2 Hg1 Cl6"
_cell_length_a       6.959212805801716
_cell_length_b       6.959212768727661
_cell_length_c       6.95921284906376
_cell_angle_alpha    59.99999867760978
_cell_angle_beta     59.99999916572684
_cell_angle_gamma    59.99999913692743

_space_group_name_H-M_alt    "P 1"
_space_group_IT_number       1

loop_
  _space_group_symop_operation_xyz
  'x, y, z'

loop_
  _atom_site_type_symbol
  _atom_site_label
  _atom_site_symmetry_multiplicity
  _atom_site_fract_x
  _atom_site_fract_y
  _atom_site_fract_z
  _atom_site_occupancy
  Ca  Ca1       1.0  0.24999991646681152  0.25000004392217484  0.2500000190634672  1.0000
  Ca  Ca2       1.0  0.7500000180996564  0.749999962817085  0.7500000633563311  1.0000
  Hg  Hg1       1.0  1.2787941285119303e-08  0.9999999964802202  0.9999999781225898  1.0000
  Cl  Cl1       1.0  0.2623670961776929  0.2623671316822958  0.7376328917148206  1.0000
  Cl  Cl2       1.0  0.7376329512171073  0.7376328750569647  0.26236705382193987  1.0000
  Cl  Cl3       1.0  0.7376328728445812  0.26236717778491253  0.26236707247383884  1.0000
  Cl  Cl4       1.0  0.2623670765198608  0.7376328940702772  0.737632958493454  1.0000
  Cl  Cl5       1.0  0.2623671151408209  0.737632846971783  0.2623670811253719  1.0000
  Cl  Cl6       1.0  0.737632930545896  0.2623670752927582  0.7376328916964051  1.0000
