data_image0
_chemical_formula_structural       Ca2InBr6
_chemical_formula_sum              "Ca2 In1 Br6"
_cell_length_a       7.321879583923945
_cell_length_b       7.321879471029688
_cell_length_c       7.321879996817502
_cell_angle_alpha    59.99999759117962
_cell_angle_beta     59.99999790109289
_cell_angle_gamma    60.00000136039351

_space_group_name_H-M_alt    "P 1"
_space_group_IT_number       1

loop_
  _space_group_symop_operation_xyz
  'x, y, z'

loop_
  _atom_site_type_symbol
  _atom_site_label
  _atom_site_symmetry_multiplicity
  _atom_site_fract_x
  _atom_site_fract_y
  _atom_site_fract_z
  _atom_site_occupancy
  Ca  Ca1       1.0  0.24999998169247956  0.25000002819125183  0.24999999613708795  1.0000
  Ca  Ca2       1.0  0.7500000128771945  0.7499999474107777  0.7499999971432552  1.0000
  In  In1       1.0  0.9999998707279311  8.029052041036404e-08  9.551078575631793e-08  1.0000
  Br  Br1       1.0  0.25718772340880736  0.2571877368645421  0.7428122520243399  1.0000
  Br  Br2       1.0  0.7428122682937499  0.7428122236830138  0.2571877748006486  1.0000
  Br  Br3       1.0  0.7428122342031804  0.2571877943367747  0.2571877479356539  1.0000
  Br  Br4       1.0  0.25718784737508915  0.742812194647012  0.7428121828575877  1.0000
  Br  Br5       1.0  0.2571878331949529  0.7428122027657411  0.2571877599832645  1.0000
  Br  Br6       1.0  0.7428122273240306  0.25718778789076424  0.742812202355572  1.0000
