data_image0
_chemical_formula_structural       Ca2InCl6
_chemical_formula_sum              "Ca2 In1 Cl6"
_cell_length_a       6.957403523287181
_cell_length_b       6.957403112099679
_cell_length_c       6.957403664790926
_cell_angle_alpha    59.99999670275859
_cell_angle_beta     59.99999947826622
_cell_angle_gamma    59.99999923669925

_space_group_name_H-M_alt    "P 1"
_space_group_IT_number       1

loop_
  _space_group_symop_operation_xyz
  'x, y, z'

loop_
  _atom_site_type_symbol
  _atom_site_label
  _atom_site_symmetry_multiplicity
  _atom_site_fract_x
  _atom_site_fract_y
  _atom_site_fract_z
  _atom_site_occupancy
  Ca  Ca1       1.0  0.2500000030814426  0.2499999590018971  0.2499999917629502  1.0000
  Ca  Ca2       1.0  0.7500000098454188  0.7500000195938615  0.7499999396271638  1.0000
  In  In1       1.0  2.1124172096952764e-08  0.99999993662748  3.693466986897942e-08  1.0000
  Cl  Cl1       1.0  0.2542712616270884  0.2542712276773118  0.7457287709109168  1.0000
  Cl  Cl2       1.0  0.7457287211063822  0.7457287966874879  0.25427125330361655  1.0000
  Cl  Cl3       1.0  0.7457287675898223  0.2542712247020397  0.25427129812014637  1.0000
  Cl  Cl4       1.0  0.25427119112011065  0.7457288119851936  0.745728743443481  1.0000
  Cl  Cl5       1.0  0.2542712215413223  0.7457288230365947  0.25427126605509603  1.0000
  Cl  Cl6       1.0  0.7457288004374852  0.2542712030885537  0.7457287089102389  1.0000
