data_image0
_chemical_formula_structural       Ca2InF6
_chemical_formula_sum              "Ca2 In1 F6"
_cell_length_a       5.893775007498321
_cell_length_b       5.893776132810447
_cell_length_c       5.893775710958376
_cell_angle_alpha    59.99999972985448
_cell_angle_beta     59.99999980679364
_cell_angle_gamma    60.00000082942856

_space_group_name_H-M_alt    "P 1"
_space_group_IT_number       1

loop_
  _space_group_symop_operation_xyz
  'x, y, z'

loop_
  _atom_site_type_symbol
  _atom_site_label
  _atom_site_symmetry_multiplicity
  _atom_site_fract_x
  _atom_site_fract_y
  _atom_site_fract_z
  _atom_site_occupancy
  Ca  Ca1       1.0  0.24999998794227782  0.24999998828752737  0.2499999944025248  1.0000
  Ca  Ca2       1.0  0.7500000225243719  0.7499999004436206  0.7500000776903706  1.0000
  In  In1       1.0  1.545619289119601e-08  0.9999999771416611  0.9999999884307269  1.0000
  F   F1        1.0  0.25101544069293796  0.25101560378828347  0.748984481412899  1.0000
  F   F2        1.0  0.7489844219416331  0.7489844345610892  0.251015572819864  1.0000
  F   F3        1.0  0.7489844705628167  0.2510155630834328  0.2510154532008404  1.0000
  F   F4        1.0  0.25101550293387026  0.7489844835780636  0.7489844718798919  1.0000
  F   F5        1.0  0.25101556932961155  0.7489844805985628  0.2510155601305677  1.0000
  F   F6        1.0  0.7489845290015845  0.2510155265803401  0.7489844223798188  1.0000
