data_image0
_chemical_formula_structural       Ca2MgF6
_chemical_formula_sum              "Ca2 Mg1 F6"
_cell_length_a       5.351227590647209
_cell_length_b       5.351227536434166
_cell_length_c       5.351227583950936
_cell_angle_alpha    60.000000776907164
_cell_angle_beta     59.99999974815211
_cell_angle_gamma    59.99999921919765

_space_group_name_H-M_alt    "P 1"
_space_group_IT_number       1

loop_
  _space_group_symop_operation_xyz
  'x, y, z'

loop_
  _atom_site_type_symbol
  _atom_site_label
  _atom_site_symmetry_multiplicity
  _atom_site_fract_x
  _atom_site_fract_y
  _atom_site_fract_z
  _atom_site_occupancy
  Ca  Ca1       1.0  0.24999998086728017  0.24999997382014913  0.25000006299925387  1.0000
  Ca  Ca2       1.0  0.7499998825940636  0.7500000885368322  0.7500000794015568  1.0000
  Mg  Mg1       1.0  4.10621677613187e-08  1.098584459737082e-07  3.479476919003647e-08  1.0000
  F   F1        1.0  0.2506875248462846  0.25068729377511223  0.7493126007674649  1.0000
  F   F2        1.0  0.7493125269591268  0.7493125854844578  0.2506874474422413  1.0000
  F   F3        1.0  0.7493126064063611  0.2506873811742369  0.2506873669969668  1.0000
  F   F4        1.0  0.2506875203768447  0.7493125644581407  0.7493124573015715  1.0000
  F   F5        1.0  0.2506874175554217  0.7493125601424963  0.2506874256648962  1.0000
  F   F6        1.0  0.7493124907415606  0.2506874518626949  0.7493125307522506  1.0000
