data_image0
_chemical_formula_structural       Ca2MnCl6
_chemical_formula_sum              "Ca2 Mn1 Cl6"
_cell_length_a       6.691232147559431
_cell_length_b       6.691232306606059
_cell_length_c       6.691232302317746
_cell_angle_alpha    59.99999892281542
_cell_angle_beta     59.99999921952446
_cell_angle_gamma    59.999999109832025

_space_group_name_H-M_alt    "P 1"
_space_group_IT_number       1

loop_
  _space_group_symop_operation_xyz
  'x, y, z'

loop_
  _atom_site_type_symbol
  _atom_site_label
  _atom_site_symmetry_multiplicity
  _atom_site_fract_x
  _atom_site_fract_y
  _atom_site_fract_z
  _atom_site_occupancy
  Ca  Ca1       1.0  0.250000104418893  0.2500000413561847  0.2499999980650891  1.0000
  Ca  Ca2       1.0  0.7499998899238661  0.750000001433589  0.7500001147408691  1.0000
  Mn  Mn1       1.0  0.9999998935274219  1.537513038430971e-07  1.7363371507755675e-07  1.0000
  Cl  Cl1       1.0  0.24697331543153225  0.24697327782772502  0.7530266815167164  1.0000
  Cl  Cl2       1.0  0.7530266198040972  0.7530266368359639  0.2469733022263894  1.0000
  Cl  Cl3       1.0  0.7530267940677716  0.24697322252637982  0.24697322172584954  1.0000
  Cl  Cl4       1.0  0.24697341091716718  0.7530266335653822  0.753026580209421  1.0000
  Cl  Cl5       1.0  0.24697332410088216  0.7530267130520177  0.2469732745567528  1.0000
  Cl  Cl6       1.0  0.7530266352225934  0.2469733260770133  0.75302665583266  1.0000
