data_image0
_chemical_formula_structural       Ca2MgI6
_chemical_formula_sum              "Ca2 Mg1 I6"
_cell_length_a       7.829589209926576
_cell_length_b       7.829589284475455
_cell_length_c       7.8295891011757375
_cell_angle_alpha    60.00000102396907
_cell_angle_beta     60.00000058071922
_cell_angle_gamma    59.99999944279371

_space_group_name_H-M_alt    "P 1"
_space_group_IT_number       1

loop_
  _space_group_symop_operation_xyz
  'x, y, z'

loop_
  _atom_site_type_symbol
  _atom_site_label
  _atom_site_symmetry_multiplicity
  _atom_site_fract_x
  _atom_site_fract_y
  _atom_site_fract_z
  _atom_site_occupancy
  Ca  Ca1       1.0  0.249999925781285  0.2500000144061933  0.2500000241456987  1.0000
  Ca  Ca2       1.0  0.750000074313553  0.7500000150620445  0.7500000325437763  1.0000
  Mg  Mg1       1.0  0.999999969655623  0.9999999671507142  9.673434920513275e-08  1.0000
  I   I1        1.0  0.2559331721169606  0.2559331973076324  0.7440668145775092  1.0000
  I   I2        1.0  0.7440668848097246  0.744066816518087  0.2559331346672773  1.0000
  I   I3        1.0  0.7440668664387698  0.25593312527122003  0.2559331294514946  1.0000
  I   I4        1.0  0.2559331496717799  0.7440668119061647  0.7440668363777213  1.0000
  I   I5        1.0  0.25593312572893995  0.7440668952185866  0.2559331204147985  1.0000
  I   I6        1.0  0.744066830807167  0.255933149892169  0.7440668122945099  1.0000
