data_image0
_chemical_formula_structural       Ca2MnF6
_chemical_formula_sum              "Ca2 Mn1 F6"
_cell_length_a       5.561513932509569
_cell_length_b       5.5615140156297755
_cell_length_c       5.561513881520041
_cell_angle_alpha    60.000001593139885
_cell_angle_beta     60.00000027328426
_cell_angle_gamma    60.00000039703591

_space_group_name_H-M_alt    "P 1"
_space_group_IT_number       1

loop_
  _space_group_symop_operation_xyz
  'x, y, z'

loop_
  _atom_site_type_symbol
  _atom_site_label
  _atom_site_symmetry_multiplicity
  _atom_site_fract_x
  _atom_site_fract_y
  _atom_site_fract_z
  _atom_site_occupancy
  Ca  Ca1       1.0  0.2500000061944082  0.24999986520978612  0.2499999433386171  1.0000
  Ca  Ca2       1.0  0.7499999602109715  0.750000007436806  0.7500000057202845  1.0000
  Mn  Mn1       1.0  1.7811276875124473e-09  8.808715348526736e-08  0.9999999262967149  1.0000
  F   F1        1.0  0.25640211036873184  0.25640209030615624  0.7435980537086001  1.0000
  F   F2        1.0  0.7435978547339828  0.7435979232798839  0.25640206647350144  1.0000
  F   F3        1.0  0.7435980214617405  0.25640202259744316  0.25640203634037967  1.0000
  F   F4        1.0  0.25640207912158447  0.7435979271254085  0.7435979365525732  1.0000
  F   F5        1.0  0.25640206946731314  0.7435980063596801  0.2564020306880878  1.0000
  F   F6        1.0  0.7435979229826718  0.2564020248437898  0.7435979825022997  1.0000
