data_image0
_chemical_formula_structural       Ca2MnBr6
_chemical_formula_sum              "Ca2 Mn1 Br6"
_cell_length_a       7.044066497968263
_cell_length_b       7.044066707135154
_cell_length_c       7.044066507906604
_cell_angle_alpha    60.000000737899
_cell_angle_beta     60.0000009941647
_cell_angle_gamma    59.99999777672931

_space_group_name_H-M_alt    "P 1"
_space_group_IT_number       1

loop_
  _space_group_symop_operation_xyz
  'x, y, z'

loop_
  _atom_site_type_symbol
  _atom_site_label
  _atom_site_symmetry_multiplicity
  _atom_site_fract_x
  _atom_site_fract_y
  _atom_site_fract_z
  _atom_site_occupancy
  Ca  Ca1       1.0  0.250000142725813  0.2500001261981914  0.2499995570894442  1.0000
  Ca  Ca2       1.0  0.7499998706243756  0.7499999021935126  0.7500003324708174  1.0000
  Mn  Mn1       1.0  1.1937836335525703e-08  3.303510929392179e-08  1.9045870574514776e-07  1.0000
  Br  Br1       1.0  0.24438125134789865  0.24438124039526926  0.7556188070896381  1.0000
  Br  Br2       1.0  0.755618681249965  0.7556186958458642  0.24438126545721825  1.0000
  Br  Br3       1.0  0.7556187835371556  0.24438126139478436  0.24438121291998655  1.0000
  Br  Br4       1.0  0.24438134472840964  0.7556186435499214  0.7556187107184119  1.0000
  Br  Br5       1.0  0.24438127383507321  0.7556187614599669  0.24438119733714758  1.0000
  Br  Br6       1.0  0.7556186501829051  0.24438133821803265  0.7556187140227812  1.0000
