data_image0
_chemical_formula_structural       Ca2MgBr6
_chemical_formula_sum              "Ca2 Mg1 Br6"
_cell_length_a       7.104975725247963
_cell_length_b       7.104975792494406
_cell_length_c       7.104975792810526
_cell_angle_alpha    59.99999898094683
_cell_angle_beta     59.99999895758018
_cell_angle_gamma    60.00000106310156

_space_group_name_H-M_alt    "P 1"
_space_group_IT_number       1

loop_
  _space_group_symop_operation_xyz
  'x, y, z'

loop_
  _atom_site_type_symbol
  _atom_site_label
  _atom_site_symmetry_multiplicity
  _atom_site_fract_x
  _atom_site_fract_y
  _atom_site_fract_z
  _atom_site_occupancy
  Ca  Ca1       1.0  0.25000006022356974  0.2500000094016652  0.2499999609880755  1.0000
  Ca  Ca2       1.0  0.7499999804106168  0.7499999902817277  0.7500000597619457  1.0000
  Mg  Mg1       1.0  0.9999999880659203  0.9999999724194445  0.9999999789408522  1.0000
  Br  Br1       1.0  0.2543581127786467  0.25435810348922483  0.7456418895226798  1.0000
  Br  Br2       1.0  0.7456418946783634  0.745641903089307  0.25435806414289325  1.0000
  Br  Br3       1.0  0.7456418486242612  0.25435815242469734  0.25435813991893363  1.0000
  Br  Br4       1.0  0.2543581137862495  0.7456418869057431  0.745641867747722  1.0000
  Br  Br5       1.0  0.2543581645265839  0.7456418722601182  0.2543581195668921  1.0000
  Br  Br6       1.0  0.7456418357733607  0.2543581119092113  0.7456419220699604  1.0000
