data_image0
_chemical_formula_structural       Ca2NbCl6
_chemical_formula_sum              "Ca2 Nb1 Cl6"
_cell_length_a       6.986993709247535
_cell_length_b       6.9869933627821865
_cell_length_c       6.986991561689593
_cell_angle_alpha    59.999998968061625
_cell_angle_beta     59.999994334172555
_cell_angle_gamma    59.99999918906745

_space_group_name_H-M_alt    "P 1"
_space_group_IT_number       1

loop_
  _space_group_symop_operation_xyz
  'x, y, z'

loop_
  _atom_site_type_symbol
  _atom_site_label
  _atom_site_symmetry_multiplicity
  _atom_site_fract_x
  _atom_site_fract_y
  _atom_site_fract_z
  _atom_site_occupancy
  Ca  Ca1       1.0  0.24999964217061016  0.2500001936639222  0.2499998250260765  1.0000
  Ca  Ca2       1.0  0.7500000916367712  0.7499998868462788  0.7500002228442169  1.0000
  Nb  Nb1       1.0  1.0995947560696773e-07  0.9999999824710741  0.9999999952904167  1.0000
  Cl  Cl1       1.0  0.251811181238254  0.2518111668834318  0.7481889018908531  1.0000
  Cl  Cl2       1.0  0.7481889166203657  0.748188773395366  0.2518111027685848  1.0000
  Cl  Cl3       1.0  0.7481889316220698  0.2518110171676127  0.2518111593354116  1.0000
  Cl  Cl4       1.0  0.25181106185368923  0.7481888792888676  0.7481889523449474  1.0000
  Cl  Cl5       1.0  0.25181118967287763  0.7481891102217216  0.2518108126724374  1.0000
  Cl  Cl6       1.0  0.7481888302078463  0.25181101936947986  0.7481889931966266  1.0000
