data_image0
_chemical_formula_structural       Ca2NbBr6
_chemical_formula_sum              "Ca2 Nb1 Br6"
_cell_length_a       7.384532432023261
_cell_length_b       7.384532419625959
_cell_length_c       7.384532235024208
_cell_angle_alpha    60.000000367513664
_cell_angle_beta     60.000000028579926
_cell_angle_gamma    59.99999827619855

_space_group_name_H-M_alt    "P 1"
_space_group_IT_number       1

loop_
  _space_group_symop_operation_xyz
  'x, y, z'

loop_
  _atom_site_type_symbol
  _atom_site_label
  _atom_site_symmetry_multiplicity
  _atom_site_fract_x
  _atom_site_fract_y
  _atom_site_fract_z
  _atom_site_occupancy
  Ca  Ca1       1.0  0.25000001375939496  0.2499999201509609  0.24999997131636376  1.0000
  Ca  Ca2       1.0  0.7500000047092068  0.7500000108905083  0.749999931599503  1.0000
  Nb  Nb1       1.0  4.46876858261425e-09  6.634109268653875e-08  0.9999999456365223  1.0000
  Br  Br1       1.0  0.2515313840870648  0.25153140988759587  0.7484686255651963  1.0000
  Br  Br2       1.0  0.7484685952408473  0.748468605738767  0.2515314428598542  1.0000
  Br  Br3       1.0  0.7484686739894335  0.2515313035689052  0.25153139753679293  1.0000
  Br  Br4       1.0  0.2515313616633124  0.7484686556675276  0.7484686316495301  1.0000
  Br  Br5       1.0  0.2515313222860449  0.748468659969278  0.2515314251075879  1.0000
  Br  Br6       1.0  0.7484686374403716  0.2515313722423586  0.7484686272212088  1.0000
