data_image0
_chemical_formula_structural       Ca2NbI6
_chemical_formula_sum              "Ca2 Nb1 I6"
_cell_length_a       8.005800883311442
_cell_length_b       8.005800864061786
_cell_length_c       8.005800842538083
_cell_angle_alpha    60.000001176639785
_cell_angle_beta     59.99999913886852
_cell_angle_gamma    59.99999932605786

_space_group_name_H-M_alt    "P 1"
_space_group_IT_number       1

loop_
  _space_group_symop_operation_xyz
  'x, y, z'

loop_
  _atom_site_type_symbol
  _atom_site_label
  _atom_site_symmetry_multiplicity
  _atom_site_fract_x
  _atom_site_fract_y
  _atom_site_fract_z
  _atom_site_occupancy
  Ca  Ca1       1.0  0.24999987585697694  0.25000019403309987  0.25000007117923273  1.0000
  Ca  Ca2       1.0  0.750000073408703  0.7499998676725116  0.749999871927278  1.0000
  Nb  Nb1       1.0  0.9999999832169943  0.9999999724632076  0.9999999959289192  1.0000
  I   I1        1.0  0.2509065835186593  0.25090655728933553  0.7490934268909518  1.0000
  I   I2        1.0  0.7490934919446628  0.7490934416935826  0.25090656317102206  1.0000
  I   I3        1.0  0.7490934620948588  0.2509065395060927  0.2509065328601251  1.0000
  I   I4        1.0  0.2509065241914776  0.749093471715401  0.7490935094110919  1.0000
  I   I5        1.0  0.2509065352160246  0.749093423858891  0.2509065458566894  1.0000
  I   I6        1.0  0.7490934732452234  0.2509065338188394  0.7490934821206905  1.0000
