data_image0
_chemical_formula_structural       Ca2NiBr6
_chemical_formula_sum              "Ca2 Ni1 Br6"
_cell_length_a       6.978341002766273
_cell_length_b       6.978340888400995
_cell_length_c       6.978340915417113
_cell_angle_alpha    60.00000028053724
_cell_angle_beta     59.9999993932367
_cell_angle_gamma    59.99999952102303

_space_group_name_H-M_alt    "P 1"
_space_group_IT_number       1

loop_
  _space_group_symop_operation_xyz
  'x, y, z'

loop_
  _atom_site_type_symbol
  _atom_site_label
  _atom_site_symmetry_multiplicity
  _atom_site_fract_x
  _atom_site_fract_y
  _atom_site_fract_z
  _atom_site_occupancy
  Ca  Ca1       1.0  0.2500000314104047  0.2499998507919229  0.250000036575397  1.0000
  Ca  Ca2       1.0  0.7499999268288139  0.7500002035052488  0.7499998950897562  1.0000
  Ni  Ni1       1.0  0.9999999744770018  3.6856385505272236e-08  0.9999999728382262  1.0000
  Br  Br1       1.0  0.24988514802000744  0.24988507021164644  0.7501148731886469  1.0000
  Br  Br2       1.0  0.7501148745686742  0.7501149647798  0.24988512050195358  1.0000
  Br  Br3       1.0  0.7501149556659946  0.24988501930054793  0.24988513398444512  1.0000
  Br  Br4       1.0  0.24988509482021665  0.7501149121420053  0.7501148989648422  1.0000
  Br  Br5       1.0  0.2498850542642671  0.750114920180778  0.2498851353501229  1.0000
  Br  Br6       1.0  0.7501149407309621  0.24988502881243543  0.750114936631401  1.0000
