data_image0
_chemical_formula_structural       Ca2NiF6
_chemical_formula_sum              "Ca2 Ni1 F6"
_cell_length_a       5.408031839710946
_cell_length_b       5.408031867537783
_cell_length_c       5.408031850145791
_cell_angle_alpha    60.000000575341105
_cell_angle_beta     59.99999997755162
_cell_angle_gamma    60.000001149800816

_space_group_name_H-M_alt    "P 1"
_space_group_IT_number       1

loop_
  _space_group_symop_operation_xyz
  'x, y, z'

loop_
  _atom_site_type_symbol
  _atom_site_label
  _atom_site_symmetry_multiplicity
  _atom_site_fract_x
  _atom_site_fract_y
  _atom_site_fract_z
  _atom_site_occupancy
  Ca  Ca1       1.0  0.24999994419272592  0.2500000017248817  0.25000002891648654  1.0000
  Ca  Ca2       1.0  0.7499999629301461  0.7500000368801322  0.749999968738701  1.0000
  Ni  Ni1       1.0  3.517646713801932e-08  0.999999984147257  0.9999999589034118  1.0000
  F   F1        1.0  0.2513489783990082  0.251348930083887  0.7486510060207817  1.0000
  F   F2        1.0  0.7486509589195643  0.7486510179340236  0.2513490273774117  1.0000
  F   F3        1.0  0.7486510308144216  0.2513489875547448  0.25134899701148206  1.0000
  F   F4        1.0  0.25134899410850536  0.7486510691676914  0.7486510269891454  1.0000
  F   F5        1.0  0.2513490186540062  0.7486510077200652  0.25134898537051764  1.0000
  F   F6        1.0  0.7486510727623163  0.25134895841526783  0.7486510377332525  1.0000
