data_image0
_chemical_formula_structural       Ca2NiI6
_chemical_formula_sum              "Ca2 Ni1 I6"
_cell_length_a       7.614732511286954
_cell_length_b       7.614732500654961
_cell_length_c       7.614732783823305
_cell_angle_alpha    60.00000002250383
_cell_angle_beta     59.999999984759135
_cell_angle_gamma    60.000000327241885

_space_group_name_H-M_alt    "P 1"
_space_group_IT_number       1

loop_
  _space_group_symop_operation_xyz
  'x, y, z'

loop_
  _atom_site_type_symbol
  _atom_site_label
  _atom_site_symmetry_multiplicity
  _atom_site_fract_x
  _atom_site_fract_y
  _atom_site_fract_z
  _atom_site_occupancy
  Ca  Ca1       1.0  0.25000001051178583  0.2500000195270191  0.25000000768978525  1.0000
  Ca  Ca2       1.0  0.7499999902876551  0.7499999685112959  0.7499999442712773  1.0000
  Ni  Ni1       1.0  3.0328066084660734e-09  6.314009007627742e-17  3.736571566868918e-09  1.0000
  I   I1        1.0  0.25014383683452945  0.2501438240077966  0.7498561368833737  1.0000
  I   I2        1.0  0.7498561928685595  0.7498561592053535  0.2501438516284652  1.0000
  I   I3        1.0  0.7498561422588108  0.2501438508410726  0.25014382210119895  1.0000
  I   I4        1.0  0.2501438373871876  0.7498561597146829  0.7498561712016637  1.0000
  I   I5        1.0  0.25014384026984593  0.7498561516087447  0.25014386111289016  1.0000
  I   I6        1.0  0.7498561504351203  0.2501438621637884  0.7498561985937482  1.0000
