data_image0
_chemical_formula_structural       Ca2NiCl6
_chemical_formula_sum              "Ca2 Ni1 Cl6"
_cell_length_a       6.594884842456845
_cell_length_b       6.5948847201900485
_cell_length_c       6.59488477918615
_cell_angle_alpha    59.999998524832606
_cell_angle_beta     59.9999989536773
_cell_angle_gamma    59.99999615548137

_space_group_name_H-M_alt    "P 1"
_space_group_IT_number       1

loop_
  _space_group_symop_operation_xyz
  'x, y, z'

loop_
  _atom_site_type_symbol
  _atom_site_label
  _atom_site_symmetry_multiplicity
  _atom_site_fract_x
  _atom_site_fract_y
  _atom_site_fract_z
  _atom_site_occupancy
  Ca  Ca1       1.0  0.24999997123674503  0.2500000145991692  0.24999999475756515  1.0000
  Ca  Ca2       1.0  0.750000020815741  0.7500000586544104  0.750000111316003  1.0000
  Ni  Ni1       1.0  0.9999999457402204  0.9999999684290721  1.6422149209715644e-07  1.0000
  Cl  Cl1       1.0  0.2487607755516168  0.24876068815929991  0.7512392953300779  1.0000
  Cl  Cl2       1.0  0.7512392802768623  0.7512393460948973  0.24876060426536456  1.0000
  Cl  Cl3       1.0  0.7512393157466845  0.24876064369461598  0.24876071431060062  1.0000
  Cl  Cl4       1.0  0.2487606866716993  0.7512393144179318  0.7512392136688743  1.0000
  Cl  Cl5       1.0  0.24876069465840742  0.7512393426883605  0.24876065937868644  1.0000
  Cl  Cl6       1.0  0.7512393043461562  0.24876064142377588  0.7512392451772903  1.0000
