data_image0
_chemical_formula_structural       Ca2PtBr6
_chemical_formula_sum              "Ca2 Pt1 Br6"
_cell_length_a       7.149724508597136
_cell_length_b       7.149724394914581
_cell_length_c       7.14972446379393
_cell_angle_alpha    59.99999917240733
_cell_angle_beta     60.000000042141075
_cell_angle_gamma    59.99999912551707

_space_group_name_H-M_alt    "P 1"
_space_group_IT_number       1

loop_
  _space_group_symop_operation_xyz
  'x, y, z'

loop_
  _atom_site_type_symbol
  _atom_site_label
  _atom_site_symmetry_multiplicity
  _atom_site_fract_x
  _atom_site_fract_y
  _atom_site_fract_z
  _atom_site_occupancy
  Ca  Ca1       1.0  0.2499999880361594  0.24999997578487165  0.25000006969951694  1.0000
  Ca  Ca2       1.0  0.7499999976153859  0.7499999770314977  0.7500000751954057  1.0000
  Pt  Pt1       1.0  0.999999848937492  1.7129961848402324e-08  0.9999996599575814  1.0000
  Br  Br1       1.0  0.24694647682917137  0.24694654425175563  0.7530534806776259  1.0000
  Br  Br2       1.0  0.7530535343184914  0.7530535113443708  0.246946444828621  1.0000
  Br  Br3       1.0  0.7530534498375283  0.24694656150912245  0.2469465296139174  1.0000
  Br  Br4       1.0  0.24694645921903874  0.75305359686676  0.7530535494000818  1.0000
  Br  Br5       1.0  0.24694663239606074  0.7530534093281486  0.2469465662592018  1.0000
  Br  Br6       1.0  0.7530536173392214  0.2469464150135242  0.7530536143316928  1.0000
