data_image0
_chemical_formula_structural       Ca2PdI6
_chemical_formula_sum              "Ca2 Pd1 I6"
_cell_length_a       7.685457698583856
_cell_length_b       7.685457662059322
_cell_length_c       7.685457819577384
_cell_angle_alpha    60.00000007970768
_cell_angle_beta     59.99999967968849
_cell_angle_gamma    60.00000142342017

_space_group_name_H-M_alt    "P 1"
_space_group_IT_number       1

loop_
  _space_group_symop_operation_xyz
  'x, y, z'

loop_
  _atom_site_type_symbol
  _atom_site_label
  _atom_site_symmetry_multiplicity
  _atom_site_fract_x
  _atom_site_fract_y
  _atom_site_fract_z
  _atom_site_occupancy
  Ca  Ca1       1.0  0.2499999636664028  0.25000002955136097  0.25000007809383107  1.0000
  Ca  Ca2       1.0  0.7499999961107464  0.7500000392528731  0.7499999891328327  1.0000
  Pd  Pd1       1.0  0.999999973000154  7.649219542657679e-08  0.9999999505318111  1.0000
  I   I1        1.0  0.2513295357165964  0.25132949335550037  0.7486704600145696  1.0000
  I   I2        1.0  0.748670468938778  0.7486704543360898  0.2513295425377688  1.0000
  I   I3        1.0  0.7486704818983555  0.25132947923597126  0.2513295388102117  1.0000
  I   I4        1.0  0.25132952893345417  0.7486704859850806  0.748670433672957  1.0000
  I   I5        1.0  0.25132956469488144  0.7486704342823273  0.25132953239246675  1.0000
  I   I6        1.0  0.7486704891923792  0.25132950544132704  0.7486704755510697  1.0000
