data_image0
_chemical_formula_structural       Ca2PtI6
_chemical_formula_sum              "Ca2 Pt1 I6"
_cell_length_a       7.716240435259708
_cell_length_b       7.716240378215057
_cell_length_c       7.716240347108873
_cell_angle_alpha    60.00000206244665
_cell_angle_beta     59.99999928063291
_cell_angle_gamma    59.999999469903564

_space_group_name_H-M_alt    "P 1"
_space_group_IT_number       1

loop_
  _space_group_symop_operation_xyz
  'x, y, z'

loop_
  _atom_site_type_symbol
  _atom_site_label
  _atom_site_symmetry_multiplicity
  _atom_site_fract_x
  _atom_site_fract_y
  _atom_site_fract_z
  _atom_site_occupancy
  Ca  Ca1       1.0  0.25000008453048467  0.2500000520363199  0.24999983562998104  1.0000
  Ca  Ca2       1.0  0.7499999706604754  0.7499998735820255  0.7500000941713603  1.0000
  Pt  Pt1       1.0  0.9999999807120626  1.745953044207166e-08  0.9999999918424284  1.0000
  I   I1        1.0  0.24966985657675186  0.24966984501435052  0.7503301654043226  1.0000
  I   I2        1.0  0.7503301259362454  0.7503301774250317  0.24966988840211596  1.0000
  I   I3        1.0  0.7503301186434808  0.2496698802191716  0.24966987084975772  1.0000
  I   I4        1.0  0.24966989443404147  0.7503301088883784  0.7503301376854885  1.0000
  I   I5        1.0  0.24966984847303997  0.7503301466550644  0.24966986991236081  1.0000
  I   I6        1.0  0.7503301231108979  0.24966989959276778  0.750330143759217  1.0000
