data_image0
_chemical_formula_structural       Ca2PtCl6
_chemical_formula_sum              "Ca2 Pt1 Cl6"
_cell_length_a       6.902720956381283
_cell_length_b       6.902720895592126
_cell_length_c       6.902720681261126
_cell_angle_alpha    60.00000095179899
_cell_angle_beta     60.000000819005024
_cell_angle_gamma    59.999999504758

_space_group_name_H-M_alt    "P 1"
_space_group_IT_number       1

loop_
  _space_group_symop_operation_xyz
  'x, y, z'

loop_
  _atom_site_type_symbol
  _atom_site_label
  _atom_site_symmetry_multiplicity
  _atom_site_fract_x
  _atom_site_fract_y
  _atom_site_fract_z
  _atom_site_occupancy
  Ca  Ca1       1.0  0.25000007091626203  0.24999990913531955  0.24999999865595504  1.0000
  Ca  Ca2       1.0  0.7500000078992866  0.7500000308100462  0.7500000046387373  1.0000
  Pt  Pt1       1.0  3.261575503191571e-09  0.9999999751598995  4.266075351800096e-08  1.0000
  Cl  Cl1       1.0  0.24537013855338274  0.2453701230467933  0.75462988243839  1.0000
  Cl  Cl2       1.0  0.7546298326595371  0.7546299038389255  0.2453700993159494  1.0000
  Cl  Cl3       1.0  0.7546298409893715  0.2453701491673438  0.24537016937598585  1.0000
  Cl  Cl4       1.0  0.2453701332821769  0.7546298635240319  0.7546298251897315  1.0000
  Cl  Cl5       1.0  0.2453701412071411  0.7546299126780265  0.24537013769534863  1.0000
  Cl  Cl6       1.0  0.7546298307827464  0.2453701319506213  0.7546298333503382  1.0000
