data_image0
_chemical_formula_structural       Ca2PdBr6
_chemical_formula_sum              "Ca2 Pd1 Br6"
_cell_length_a       7.0845324257996545
_cell_length_b       7.084532398850546
_cell_length_c       7.0845322886881155
_cell_angle_alpha    60.000000834953966
_cell_angle_beta     60.000000074795054
_cell_angle_gamma    59.999999924902745

_space_group_name_H-M_alt    "P 1"
_space_group_IT_number       1

loop_
  _space_group_symop_operation_xyz
  'x, y, z'

loop_
  _atom_site_type_symbol
  _atom_site_label
  _atom_site_symmetry_multiplicity
  _atom_site_fract_x
  _atom_site_fract_y
  _atom_site_fract_z
  _atom_site_occupancy
  Ca  Ca1       1.0  0.24999994581989274  0.25000004645363405  0.2500000211372938  1.0000
  Ca  Ca2       1.0  0.7500000461054159  0.7499999388248653  0.7500000099536271  1.0000
  Pd  Pd1       1.0  0.9999999099775607  0.9999999913562055  2.752766330122086e-09  1.0000
  Br  Br1       1.0  0.250230946246735  0.25023094929508966  0.7497690547742845  1.0000
  Br  Br2       1.0  0.749769112074641  0.74976911550632  0.25023089912257046  1.0000
  Br  Br3       1.0  0.7497691087418049  0.25023090040232576  0.2502308695370869  1.0000
  Br  Br4       1.0  0.2502308894064539  0.7497691004350039  0.7497691196093768  1.0000
  Br  Br5       1.0  0.2502309238367943  0.7497690301307317  0.2502309216431246  1.0000
  Br  Br6       1.0  0.7497691174795479  0.2502309292163836  0.7497691005410231  1.0000
