data_image0
_chemical_formula_structural       Ca2PtF6
_chemical_formula_sum              "Ca2 Pt1 F6"
_cell_length_a       5.7708728587509075
_cell_length_b       5.770872692413029
_cell_length_c       5.77087276845242
_cell_angle_alpha    60.00000242084494
_cell_angle_beta     59.99999779076806
_cell_angle_gamma    60.000001629983956

_space_group_name_H-M_alt    "P 1"
_space_group_IT_number       1

loop_
  _space_group_symop_operation_xyz
  'x, y, z'

loop_
  _atom_site_type_symbol
  _atom_site_label
  _atom_site_symmetry_multiplicity
  _atom_site_fract_x
  _atom_site_fract_y
  _atom_site_fract_z
  _atom_site_occupancy
  Ca  Ca1       1.0  0.24999997783878916  0.25000000952629375  0.2500002051071257  1.0000
  Ca  Ca2       1.0  0.7499999552836696  0.7500000413125762  0.7499999517215046  1.0000
  Pt  Pt1       1.0  5.416681518927351e-09  0.9999999957554253  0.9999999838183851  1.0000
  F   F1        1.0  0.2508836393896605  0.25088344771995025  0.7491163980430487  1.0000
  F   F2        1.0  0.7491164449351921  0.7491164736594046  0.2508835607674007  1.0000
  F   F3        1.0  0.7491164233603314  0.25088349940705396  0.25088349524984666  1.0000
  F   F4        1.0  0.2508835218473327  0.7491166172227052  0.7491164043028797  1.0000
  F   F5        1.0  0.2508837293258806  0.749116143906757  0.2508837143255134  1.0000
  F   F6        1.0  0.749116379738163  0.2508837392714308  0.7491162373532015  1.0000
