data_image0
_chemical_formula_structural       Ca2PbBr6
_chemical_formula_sum              "Ca2 Pb1 Br6"
_cell_length_a       7.4698128898577645
_cell_length_b       7.4698128204445835
_cell_length_c       7.469812754479758
_cell_angle_alpha    59.999999432592396
_cell_angle_beta     59.99999969671912
_cell_angle_gamma    60.00000056419953

_space_group_name_H-M_alt    "P 1"
_space_group_IT_number       1

loop_
  _space_group_symop_operation_xyz
  'x, y, z'

loop_
  _atom_site_type_symbol
  _atom_site_label
  _atom_site_symmetry_multiplicity
  _atom_site_fract_x
  _atom_site_fract_y
  _atom_site_fract_z
  _atom_site_occupancy
  Ca  Ca1       1.0  0.2500000253002607  0.24999994864699024  0.24999998596919304  1.0000
  Ca  Ca2       1.0  0.7499999845846327  0.7500000410524713  0.7500000050753045  1.0000
  Pb  Pb1       1.0  0.9999999556399944  0.9999999754061125  4.51867200914203e-08  1.0000
  Br  Br1       1.0  0.26605681106287316  0.2660567812048051  0.7339432211424398  1.0000
  Br  Br2       1.0  0.7339432343598509  0.7339432363677286  0.26605675961615194  1.0000
  Br  Br3       1.0  0.7339432060276698  0.2660567554750423  0.2660567850293446  1.0000
  Br  Br4       1.0  0.2660567910539702  0.7339432030721627  0.733943202557197  1.0000
  Br  Br5       1.0  0.2660567919330483  0.7339432503040011  0.26605678765425916  1.0000
  Br  Br6       1.0  0.7339432011808414  0.26605680825834327  0.7339432054574527  1.0000
