data_image0
_chemical_formula_structural       Ca2PbI6
_chemical_formula_sum              "Ca2 Pb1 I6"
_cell_length_a       8.108675044670882
_cell_length_b       8.108674979222101
_cell_length_c       8.1086750820978
_cell_angle_alpha    59.99999935459608
_cell_angle_beta     59.999998997602276
_cell_angle_gamma    60.00000151182407

_space_group_name_H-M_alt    "P 1"
_space_group_IT_number       1

loop_
  _space_group_symop_operation_xyz
  'x, y, z'

loop_
  _atom_site_type_symbol
  _atom_site_label
  _atom_site_symmetry_multiplicity
  _atom_site_fract_x
  _atom_site_fract_y
  _atom_site_fract_z
  _atom_site_occupancy
  Ca  Ca1       1.0  0.25000006306361733  0.24999996094967666  0.25000000556406193  1.0000
  Ca  Ca2       1.0  0.7499999734118209  0.7500000218070274  0.7500000575691981  1.0000
  Pb  Pb1       1.0  0.9999999638093693  6.041651455511284e-09  6.933736209337928e-08  1.0000
  I   I1        1.0  0.26744265982713333  0.26744264989647376  0.7325573303733598  1.0000
  I   I2        1.0  0.732557331725905  0.7325573736413824  0.2674426312377683  1.0000
  I   I3        1.0  0.7325573066707487  0.2674426715753301  0.26744264178151456  1.0000
  I   I4        1.0  0.26744271061605146  0.7325573217542652  0.7325572937021795  1.0000
  I   I5        1.0  0.26744269917836677  0.7325573637425478  0.2674426164364681  1.0000
  I   I6        1.0  0.7325572895414295  0.2674426341182859  0.7325573532635568  1.0000
