data_image0
_chemical_formula_structural       Ca2PdCl6
_chemical_formula_sum              "Ca2 Pd1 Cl6"
_cell_length_a       6.740638138074529
_cell_length_b       6.7406381010524035
_cell_length_c       6.740638091692353
_cell_angle_alpha    60.0000007263501
_cell_angle_beta     59.99999951873914
_cell_angle_gamma    59.99999930347782

_space_group_name_H-M_alt    "P 1"
_space_group_IT_number       1

loop_
  _space_group_symop_operation_xyz
  'x, y, z'

loop_
  _atom_site_type_symbol
  _atom_site_label
  _atom_site_symmetry_multiplicity
  _atom_site_fract_x
  _atom_site_fract_y
  _atom_site_fract_z
  _atom_site_occupancy
  Ca  Ca1       1.0  0.25000006206991343  0.24999999045057059  0.24999998913760155  1.0000
  Ca  Ca2       1.0  0.7500000530080122  0.7499999495482299  0.7499999692549172  1.0000
  Pd  Pd1       1.0  5.7691309650268e-08  0.9999999091521559  0.9999999765227114  1.0000
  Cl  Cl1       1.0  0.24939568252282762  0.2493956921528335  0.7506043360940748  1.0000
  Cl  Cl2       1.0  0.7506043422120512  0.7506043441446818  0.24939562822184566  1.0000
  Cl  Cl3       1.0  0.7506042774915549  0.2493957135707346  0.24939569858932295  1.0000
  Cl  Cl4       1.0  0.24939562276115124  0.7506043826863592  0.7506043855167011  1.0000
  Cl  Cl5       1.0  0.24939559895582525  0.7506043774777759  0.24939566517645112  1.0000
  Cl  Cl6       1.0  0.7506043050703672  0.24939564065017175  0.750604353743206  1.0000
