data_image0
_chemical_formula_structural       Ca2SI6
_chemical_formula_sum              "Ca2 S1 I6"
_cell_length_a       7.762625669315163
_cell_length_b       7.762625597413359
_cell_length_c       7.762625642788121
_cell_angle_alpha    60.000000636554965
_cell_angle_beta     59.999999885506575
_cell_angle_gamma    59.99999939049283

_space_group_name_H-M_alt    "P 1"
_space_group_IT_number       1

loop_
  _space_group_symop_operation_xyz
  'x, y, z'

loop_
  _atom_site_type_symbol
  _atom_site_label
  _atom_site_symmetry_multiplicity
  _atom_site_fract_x
  _atom_site_fract_y
  _atom_site_fract_z
  _atom_site_occupancy
  Ca  Ca1       1.0  0.25000003471753024  0.2500000976367303  0.24999990644047823  1.0000
  Ca  Ca2       1.0  0.7499999118175841  0.7500000041827414  0.750000010093394  1.0000
  S   S1        1.0  3.149298660507191e-08  1.2621964791677402e-08  0.9999999740778526  1.0000
  I   I1        1.0  0.2628005084834385  0.26280046977237664  0.7371995014035229  1.0000
  I   I2        1.0  0.737199533961536  0.7371994648060577  0.26280055514207384  1.0000
  I   I3        1.0  0.7371995122400649  0.2628004538073449  0.2628005094173813  1.0000
  I   I4        1.0  0.26280049913212405  0.7371994981262914  0.7371995307989772  1.0000
  I   I5        1.0  0.2628004800567493  0.7371994916774509  0.26280051294168216  1.0000
  I   I6        1.0  0.7371994902502645  0.26280050758855455  0.7371994996648251  1.0000
