data_image0
_chemical_formula_structural       Ca2ScBr6
_chemical_formula_sum              "Ca2 Sc1 Br6"
_cell_length_a       7.286354289721348
_cell_length_b       7.286354233418496
_cell_length_c       7.286354224228249
_cell_angle_alpha    59.99999904671158
_cell_angle_beta     59.99999990810307
_cell_angle_gamma    59.99999894552675

_space_group_name_H-M_alt    "P 1"
_space_group_IT_number       1

loop_
  _space_group_symop_operation_xyz
  'x, y, z'

loop_
  _atom_site_type_symbol
  _atom_site_label
  _atom_site_symmetry_multiplicity
  _atom_site_fract_x
  _atom_site_fract_y
  _atom_site_fract_z
  _atom_site_occupancy
  Ca  Ca1       1.0  0.24999997262144152  0.25000001908123176  0.2500000341814417  1.0000
  Ca  Ca2       1.0  0.7500000520732384  0.7499999446250883  0.7499998762779019  1.0000
  Sc  Sc1       1.0  0.9999999064836169  2.857487084140268e-08  7.638846730613501e-08  1.0000
  Br  Br1       1.0  0.25118303856578594  0.2511830776957891  0.7488169606200381  1.0000
  Br  Br2       1.0  0.7488170151486003  0.7488169986291379  0.25118303135970843  1.0000
  Br  Br3       1.0  0.7488170107083554  0.25118294657586276  0.25118303439168055  1.0000
  Br  Br4       1.0  0.2511830874943162  0.748816929724969  0.7488169406584075  1.0000
  Br  Br5       1.0  0.25118300754090017  0.7488169615001998  0.2511830728975538  1.0000
  Br  Br6       1.0  0.7488169118547793  0.25118309465423116  0.7488169688782251  1.0000
