data_image0
_chemical_formula_structural       Ca2SeCl6
_chemical_formula_sum              "Ca2 Se1 Cl6"
_cell_length_a       7.062402261539654
_cell_length_b       7.062402446503118
_cell_length_c       7.062402560875263
_cell_angle_alpha    60.00000049252373
_cell_angle_beta     60.00000093960165
_cell_angle_gamma    59.9999999724357

_space_group_name_H-M_alt    "P 1"
_space_group_IT_number       1

loop_
  _space_group_symop_operation_xyz
  'x, y, z'

loop_
  _atom_site_type_symbol
  _atom_site_label
  _atom_site_symmetry_multiplicity
  _atom_site_fract_x
  _atom_site_fract_y
  _atom_site_fract_z
  _atom_site_occupancy
  Ca  Ca1       1.0  0.24999991317009562  0.25000004768078105  0.24999999189682656  1.0000
  Ca  Ca2       1.0  0.749999964731957  0.749999849966601  0.750000060591672  1.0000
  Se  Se1       1.0  5.647375894001509e-09  4.6822751480250355e-08  3.323478381240018e-08  1.0000
  Cl  Cl1       1.0  0.25197368169965667  0.25197373728860184  0.748026271312129  1.0000
  Cl  Cl2       1.0  0.748026316347679  0.7480262904219773  0.2519736886389534  1.0000
  Cl  Cl3       1.0  0.7480263065919223  0.251973749077602  0.2519736697197911  1.0000
  Cl  Cl4       1.0  0.2519737537185059  0.7480262144684657  0.7480263251647713  1.0000
  Cl  Cl5       1.0  0.2519737735087294  0.7480262720376594  0.25197366560956597  1.0000
  Cl  Cl6       1.0  0.7480262667339709  0.25197380076149506  0.7480262974258561  1.0000
