data_image0
_chemical_formula_structural       Ca2SrBr6
_chemical_formula_sum              "Ca2 Sr1 Br6"
_cell_length_a       7.5387704410729155
_cell_length_b       7.538770502847397
_cell_length_c       7.538770548898632
_cell_angle_alpha    60.00000168639171
_cell_angle_beta     60.000000244864665
_cell_angle_gamma    60.00000025032413

_space_group_name_H-M_alt    "P 1"
_space_group_IT_number       1

loop_
  _space_group_symop_operation_xyz
  'x, y, z'

loop_
  _atom_site_type_symbol
  _atom_site_label
  _atom_site_symmetry_multiplicity
  _atom_site_fract_x
  _atom_site_fract_y
  _atom_site_fract_z
  _atom_site_occupancy
  Ca  Ca1       1.0  0.24999993725096398  0.2500000199951524  0.25000006550561704  1.0000
  Ca  Ca2       1.0  0.7500000914829094  0.7499997951764747  0.7500000497763264  1.0000
  Sr  Sr1       1.0  0.999999977008816  2.761811320181971e-08  0.9999999340156762  1.0000
  Br  Br1       1.0  0.2669271855948421  0.2669272997260838  0.733072712337552  1.0000
  Br  Br2       1.0  0.7330727884894216  0.73307275751019  0.26692721638353933  1.0000
  Br  Br3       1.0  0.733072712745478  0.26692729942698884  0.2669271727164784  1.0000
  Br  Br4       1.0  0.2669271767696688  0.7330728552849838  0.7330727919985627  1.0000
  Br  Br5       1.0  0.26692730007631615  0.7330727279749895  0.26692728563038565  1.0000
  Br  Br6       1.0  0.7330728339082603  0.2669272171642343  0.7330727757132698  1.0000
