data_image0
_chemical_formula_structural       Ca2SeBr6
_chemical_formula_sum              "Ca2 Se1 Br6"
_cell_length_a       7.406641277322817
_cell_length_b       7.406641252632383
_cell_length_c       7.406641163196137
_cell_angle_alpha    60.00000045072214
_cell_angle_beta     60.00000042764086
_cell_angle_gamma    60.00000027492078

_space_group_name_H-M_alt    "P 1"
_space_group_IT_number       1

loop_
  _space_group_symop_operation_xyz
  'x, y, z'

loop_
  _atom_site_type_symbol
  _atom_site_label
  _atom_site_symmetry_multiplicity
  _atom_site_fract_x
  _atom_site_fract_y
  _atom_site_fract_z
  _atom_site_occupancy
  Ca  Ca1       1.0  0.250000042253525  0.24999996726972126  0.2500000624714149  1.0000
  Ca  Ca2       1.0  0.7499999907621324  0.750000057245364  0.749999949521763  1.0000
  Se  Se1       1.0  0.9999999953229791  0.0  0.9999999631844603  1.0000
  Br  Br1       1.0  0.2556113316182066  0.2556113269959326  0.7443886458994038  1.0000
  Br  Br2       1.0  0.7443886700606237  0.7443886512190077  0.2556113225537407  1.0000
  Br  Br3       1.0  0.74438865787083  0.25561134845975797  0.255611312949663  1.0000
  Br  Br4       1.0  0.25561130213898353  0.7443886892839399  0.7443886965287787  1.0000
  Br  Br5       1.0  0.25561134040456446  0.7443886458552236  0.2556113342787822  1.0000
  Br  Br6       1.0  0.7443886672428103  0.2556113191311039  0.7443886972105418  1.0000
