data_image0
_chemical_formula_structural       Ca2SrI6
_chemical_formula_sum              "Ca2 Sr1 I6"
_cell_length_a       8.157746739535101
_cell_length_b       8.157747008551619
_cell_length_c       8.157747100616673
_cell_angle_alpha    59.999996737347196
_cell_angle_beta     60.00000008001499
_cell_angle_gamma    59.99999929508048

_space_group_name_H-M_alt    "P 1"
_space_group_IT_number       1

loop_
  _space_group_symop_operation_xyz
  'x, y, z'

loop_
  _atom_site_type_symbol
  _atom_site_label
  _atom_site_symmetry_multiplicity
  _atom_site_fract_x
  _atom_site_fract_y
  _atom_site_fract_z
  _atom_site_occupancy
  Ca  Ca1       1.0  0.24999988968154832  0.25000001739488675  0.2500000561408282  1.0000
  Ca  Ca2       1.0  0.7500001493460701  0.7499999786196199  0.7499999601509848  1.0000
  Sr  Sr1       1.0  1.8315183079817838e-08  4.503982510802577e-09  0.9999999824612742  1.0000
  I   I1        1.0  0.26762350166752197  0.2676235385350841  0.7323764856833048  1.0000
  I   I2        1.0  0.7323764721481094  0.7323764875059717  0.26762351387802413  1.0000
  I   I3        1.0  0.732376506894936  0.26762351490872516  0.2676235001995115  1.0000
  I   I4        1.0  0.26762345119358644  0.7323764946177294  0.7323765069018722  1.0000
  I   I5        1.0  0.26762346489224  0.7323764870296532  0.26762352447150584  1.0000
  I   I6        1.0  0.7323765444253425  0.2676234834622894  0.7323764716292906  1.0000
