data_image0
_chemical_formula_structural       Ca2SnI6
_chemical_formula_sum              "Ca2 Sn1 I6"
_cell_length_a       8.024635328413423
_cell_length_b       8.024635349414627
_cell_length_c       8.024635271318942
_cell_angle_alpha    60.00000013558853
_cell_angle_beta     60.000000837465514
_cell_angle_gamma    60.00000009741079

_space_group_name_H-M_alt    "P 1"
_space_group_IT_number       1

loop_
  _space_group_symop_operation_xyz
  'x, y, z'

loop_
  _atom_site_type_symbol
  _atom_site_label
  _atom_site_symmetry_multiplicity
  _atom_site_fract_x
  _atom_site_fract_y
  _atom_site_fract_z
  _atom_site_occupancy
  Ca  Ca1       1.0  0.25000000704510805  0.25000004592519537  0.24999991876396455  1.0000
  Ca  Ca2       1.0  0.7500000135516681  0.7499999317343753  0.7500001285369515  1.0000
  Sn  Sn1       1.0  0.9999999936781434  0.9999999542130646  0.9999999936541696  1.0000
  I   I1        1.0  0.2614706689800734  0.2614706753198825  0.7385293285072334  1.0000
  I   I2        1.0  0.7385293599585574  0.7385293679676294  0.26147059706973086  1.0000
  I   I3        1.0  0.7385293657753564  0.2614706434868371  0.26147061271304745  1.0000
  I   I4        1.0  0.26147059063499284  0.7385293799596693  0.7385294138797126  1.0000
  I   I5        1.0  0.2614706361565134  0.7385293469495113  0.2614706416409158  1.0000
  I   I6        1.0  0.7385293614894604  0.26147065207729586  0.7385293653284188  1.0000
