data_image0
_chemical_formula_structural       Ca2SeF6
_chemical_formula_sum              "Ca2 Se1 F6"
_cell_length_a       5.955396111550831
_cell_length_b       5.955394236607839
_cell_length_c       5.955394549288875
_cell_angle_alpha    59.99999885658275
_cell_angle_beta     60.00000526434585
_cell_angle_gamma    60.00001329079109

_space_group_name_H-M_alt    "P 1"
_space_group_IT_number       1

loop_
  _space_group_symop_operation_xyz
  'x, y, z'

loop_
  _atom_site_type_symbol
  _atom_site_label
  _atom_site_symmetry_multiplicity
  _atom_site_fract_x
  _atom_site_fract_y
  _atom_site_fract_z
  _atom_site_occupancy
  Ca  Ca1       1.0  0.24999987270913882  0.24999962127807984  0.250000342610086  1.0000
  Ca  Ca2       1.0  0.7499991569546267  0.7499991538049128  0.7500010429070351  1.0000
  Se  Se1       1.0  0.9999996808216924  9.665685964391052e-08  2.2208462425465355e-07  1.0000
  F   F1        1.0  0.25960242946688183  0.25960262796168904  0.7403974927388978  1.0000
  F   F2        1.0  0.7403974936998685  0.7403975208837045  0.25960212610601124  1.0000
  F   F3        1.0  0.7403975747883186  0.25960305555770385  0.2596020765320794  1.0000
  F   F4        1.0  0.2596033103521592  0.7403972146231783  0.7403971836855335  1.0000
  F   F5        1.0  0.25960322922076495  0.740397781015973  0.2596016156902226  1.0000
  F   F6        1.0  0.7403970710830369  0.25960302797572676  0.7403978707174718  1.0000
