data_image0
_chemical_formula_structural       Ca2SnCl6
_chemical_formula_sum              "Ca2 Sn1 Cl6"
_cell_length_a       7.113035890413749
_cell_length_b       7.113035555165311
_cell_length_c       7.113035993094481
_cell_angle_alpha    59.99999514425182
_cell_angle_beta     59.999997546599275
_cell_angle_gamma    60.00000152464617

_space_group_name_H-M_alt    "P 1"
_space_group_IT_number       1

loop_
  _space_group_symop_operation_xyz
  'x, y, z'

loop_
  _atom_site_type_symbol
  _atom_site_label
  _atom_site_symmetry_multiplicity
  _atom_site_fract_x
  _atom_site_fract_y
  _atom_site_fract_z
  _atom_site_occupancy
  Ca  Ca1       1.0  0.2500002812012885  0.2500001285482818  0.24999966283455968  1.0000
  Ca  Ca2       1.0  0.7500001513866189  0.7500000516094691  0.7499999501023626  1.0000
  Sn  Sn1       1.0  0.9999999984442179  0.9999998829154501  1.830366801358622e-07  1.0000
  Cl  Cl1       1.0  0.25728277778506947  0.2572827824267179  0.7427172916760265  1.0000
  Cl  Cl2       1.0  0.7427172983533347  0.7427173615725469  0.25728261035228006  1.0000
  Cl  Cl3       1.0  0.7427171312907791  0.257282725405042  0.2572827983738557  1.0000
  Cl  Cl4       1.0  0.25728275675769663  0.7427170380694363  0.7427173303211718  1.0000
  Cl  Cl5       1.0  0.2572825271514756  0.7427172445256237  0.2572828701246155  1.0000
  Cl  Cl6       1.0  0.7427170718856556  0.25728277722357207  0.7427173287676331  1.0000
