data_image0
_chemical_formula_structural       Ca2ScF6
_chemical_formula_sum              "Ca2 Sc1 F6"
_cell_length_a       5.8867918406770405
_cell_length_b       5.886791678774669
_cell_length_c       5.886791777966022
_cell_angle_alpha    59.999997597041
_cell_angle_beta     59.999996056659555
_cell_angle_gamma    59.99999576543195

_space_group_name_H-M_alt    "P 1"
_space_group_IT_number       1

loop_
  _space_group_symop_operation_xyz
  'x, y, z'

loop_
  _atom_site_type_symbol
  _atom_site_label
  _atom_site_symmetry_multiplicity
  _atom_site_fract_x
  _atom_site_fract_y
  _atom_site_fract_z
  _atom_site_occupancy
  Ca  Ca1       1.0  0.2500000252644589  0.24999999221739524  0.24999984902730832  1.0000
  Ca  Ca2       1.0  0.7499998871482774  0.7500001659773645  0.7499997964534559  1.0000
  Sc  Sc1       1.0  4.123256115511319e-08  0.9999999292631205  0.9999999535983056  1.0000
  F   F1        1.0  0.24387997352796034  0.24387987477429732  0.7561201396188105  1.0000
  F   F2        1.0  0.7561200474240257  0.756120146107693  0.24388002816543686  1.0000
  F   F3        1.0  0.7561201520602703  0.24387980864705902  0.24388001585418487  1.0000
  F   F4        1.0  0.24388002849151894  0.7561199688168448  0.7561201055058588  1.0000
  F   F5        1.0  0.24387988144935013  0.7561200939682136  0.24388005195863133  1.0000
  F   F6        1.0  0.7561199380211219  0.2438799664432136  0.7561201135644716  1.0000
