data_image0
_chemical_formula_structural       Ca2SeI6
_chemical_formula_sum              "Ca2 Se1 I6"
_cell_length_a       7.89165611529602
_cell_length_b       7.891656210743034
_cell_length_c       7.891656207769369
_cell_angle_alpha    59.999999659403336
_cell_angle_beta     60.00000062842565
_cell_angle_gamma    59.999999819267025

_space_group_name_H-M_alt    "P 1"
_space_group_IT_number       1

loop_
  _space_group_symop_operation_xyz
  'x, y, z'

loop_
  _atom_site_type_symbol
  _atom_site_label
  _atom_site_symmetry_multiplicity
  _atom_site_fract_x
  _atom_site_fract_y
  _atom_site_fract_z
  _atom_site_occupancy
  Ca  Ca1       1.0  0.2499999877062719  0.24999999029650877  0.24999996107254466  1.0000
  Ca  Ca2       1.0  0.750000016975409  0.750000011240201  0.7500000692716481  1.0000
  Se  Se1       1.0  1.2311607327000368e-08  0.9999999937922034  1.975699510737383e-08  1.0000
  I   I1        1.0  0.2635666228688597  0.263566624094398  0.7364333907932477  1.0000
  I   I2        1.0  0.7364333854188068  0.736433392961803  0.2635665818360837  1.0000
  I   I3        1.0  0.7364333785475057  0.26356662581067936  0.2635666117775971  1.0000
  I   I4        1.0  0.2635665924807668  0.7364333757260308  0.7364333796382095  1.0000
  I   I5        1.0  0.26356659275818817  0.7364334042653363  0.26356660928498843  1.0000
  I   I6        1.0  0.7364334112438892  0.2635665817518827  0.7364333746708228  1.0000
