data_image0
_chemical_formula_structural       Ca2SBr6
_chemical_formula_sum              "Ca2 S1 Br6"
_cell_length_a       7.253091131131709
_cell_length_b       7.253091154632391
_cell_length_c       7.253091236805847
_cell_angle_alpha    59.99999942509307
_cell_angle_beta     59.99999983307412
_cell_angle_gamma    59.99999976948025

_space_group_name_H-M_alt    "P 1"
_space_group_IT_number       1

loop_
  _space_group_symop_operation_xyz
  'x, y, z'

loop_
  _atom_site_type_symbol
  _atom_site_label
  _atom_site_symmetry_multiplicity
  _atom_site_fract_x
  _atom_site_fract_y
  _atom_site_fract_z
  _atom_site_occupancy
  Ca  Ca1       1.0  0.24999992258760087  0.24999999605131457  0.25000009764544234  1.0000
  Ca  Ca2       1.0  0.7500000154074751  0.7500000810260276  0.7499998662355662  1.0000
  S   S1        1.0  0.9999999696386385  3.3771666406605036e-08  2.7248019704650742e-08  1.0000
  Br  Br1       1.0  0.25551198873690706  0.25551194231366414  0.7444880337582489  1.0000
  Br  Br2       1.0  0.7444880694481836  0.7444880655317614  0.2555119528989981  1.0000
  Br  Br3       1.0  0.7444880786841126  0.2555118960518033  0.2555119690025704  1.0000
  Br  Br4       1.0  0.25551197197691417  0.7444880054128726  0.7444880718496383  1.0000
  Br  Br5       1.0  0.2555119117758731  0.7444880476303221  0.25551196787006814  1.0000
  Br  Br6       1.0  0.7444880610200197  0.25551192982060383  0.7444880298024628  1.0000
