data_image0
_chemical_formula_structural       Ca2SnBr6
_chemical_formula_sum              "Ca2 Sn1 Br6"
_cell_length_a       7.398304272360773
_cell_length_b       7.398304127983139
_cell_length_c       7.398304304384089
_cell_angle_alpha    60.00000122791623
_cell_angle_beta     59.9999989724388
_cell_angle_gamma    60.000000929528234

_space_group_name_H-M_alt    "P 1"
_space_group_IT_number       1

loop_
  _space_group_symop_operation_xyz
  'x, y, z'

loop_
  _atom_site_type_symbol
  _atom_site_label
  _atom_site_symmetry_multiplicity
  _atom_site_fract_x
  _atom_site_fract_y
  _atom_site_fract_z
  _atom_site_occupancy
  Ca  Ca1       1.0  0.25000001680713657  0.24999997066556381  0.2500000229749207  1.0000
  Ca  Ca2       1.0  0.7500000084835989  0.7500000378101287  0.7499999661622022  1.0000
  Sn  Sn1       1.0  5.629841734895802e-08  0.9999999668911993  0.9999999356904086  1.0000
  Br  Br1       1.0  0.2580859933598769  0.25808604669557933  0.741914008621397  1.0000
  Br  Br2       1.0  0.7419139485476441  0.7419139965443527  0.25808602374846956  1.0000
  Br  Br3       1.0  0.7419139666061836  0.25808602824280213  0.258085966826972  1.0000
  Br  Br4       1.0  0.25808592608181874  0.7419140315515281  0.7419140305123344  1.0000
  Br  Br5       1.0  0.25808604841454635  0.7419139443789463  0.2580860595620719  1.0000
  Br  Br6       1.0  0.7419140399072843  0.2580859780138685  0.7419139897607396  1.0000
