data_image0
_chemical_formula_structural       Ca2SrF6
_chemical_formula_sum              "Ca2 Sr1 F6"
_cell_length_a       5.866497824169353
_cell_length_b       5.866497283520634
_cell_length_c       5.866497613772607
_cell_angle_alpha    60.0000035305104
_cell_angle_beta     60.000002604196595
_cell_angle_gamma    60.00000158525229

_space_group_name_H-M_alt    "P 1"
_space_group_IT_number       1

loop_
  _space_group_symop_operation_xyz
  'x, y, z'

loop_
  _atom_site_type_symbol
  _atom_site_label
  _atom_site_symmetry_multiplicity
  _atom_site_fract_x
  _atom_site_fract_y
  _atom_site_fract_z
  _atom_site_occupancy
  Ca  Ca1       1.0  0.2500001992165049  0.2500002376028309  0.24999971998660322  1.0000
  Ca  Ca2       1.0  0.7499999992401049  0.7499999925542239  0.749999848269721  1.0000
  Sr  Sr1       1.0  0.9999999860820435  4.17538716789991e-08  1.1650962559992423e-08  1.0000
  F   F1        1.0  0.26705236959622064  0.26705250249496953  0.7329476469450699  1.0000
  F   F2        1.0  0.7329476825345803  0.7329474875773498  0.2670524895273213  1.0000
  F   F3        1.0  0.7329475533824719  0.2670522834526456  0.26705243993663597  1.0000
  F   F4        1.0  0.26705250195157126  0.7329475730072778  0.7329475674165452  1.0000
  F   F5        1.0  0.2670524339753252  0.7329474321985436  0.2670524801731521  1.0000
  F   F6        1.0  0.7329473182206254  0.2670524597521712  0.7329477462334067  1.0000
