data_image0
_chemical_formula_structural       Ca2ScCl6
_chemical_formula_sum              "Ca2 Sc1 Cl6"
_cell_length_a       6.911683961602988
_cell_length_b       6.911684093123195
_cell_length_c       6.911684058278582
_cell_angle_alpha    60.00000123282936
_cell_angle_beta     60.00000443649187
_cell_angle_gamma    60.00000157735399

_space_group_name_H-M_alt    "P 1"
_space_group_IT_number       1

loop_
  _space_group_symop_operation_xyz
  'x, y, z'

loop_
  _atom_site_type_symbol
  _atom_site_label
  _atom_site_symmetry_multiplicity
  _atom_site_fract_x
  _atom_site_fract_y
  _atom_site_fract_z
  _atom_site_occupancy
  Ca  Ca1       1.0  0.24999990373525693  0.2499999075123222  0.25000024611338656  1.0000
  Ca  Ca2       1.0  0.7499999193390203  0.7500000804793441  0.7499999301047392  1.0000
  Sc  Sc1       1.0  5.047270114239233e-08  6.910768654100686e-08  0.9999998664217136  1.0000
  Cl  Cl1       1.0  0.2510286061948106  0.25102858992521804  0.7489713209091798  1.0000
  Cl  Cl2       1.0  0.7489714127508768  0.7489713768025457  0.2510285972798029  1.0000
  Cl  Cl3       1.0  0.7489715328178447  0.2510285537875543  0.2510285311921049  1.0000
  Cl  Cl4       1.0  0.25102853130196695  0.7489714678719588  0.7489714801796572  1.0000
  Cl  Cl5       1.0  0.2510285168755355  0.748971437404725  0.251028548206033  1.0000
  Cl  Cl6       1.0  0.7489715256619428  0.25102851869108594  0.748971498057793  1.0000
