data_image0
_chemical_formula_structural       Ca2SrCl6
_chemical_formula_sum              "Ca2 Sr1 Cl6"
_cell_length_a       7.12057490660886
_cell_length_b       7.120575020869221
_cell_length_c       7.120574979604748
_cell_angle_alpha    59.99999872161192
_cell_angle_beta     59.99999954848406
_cell_angle_gamma    60.00000054471216

_space_group_name_H-M_alt    "P 1"
_space_group_IT_number       1

loop_
  _space_group_symop_operation_xyz
  'x, y, z'

loop_
  _atom_site_type_symbol
  _atom_site_label
  _atom_site_symmetry_multiplicity
  _atom_site_fract_x
  _atom_site_fract_y
  _atom_site_fract_z
  _atom_site_occupancy
  Ca  Ca1       1.0  0.25000003222817  0.25000005010945237  0.24999991514197614  1.0000
  Ca  Ca2       1.0  0.7499999151621513  0.7499999748874945  0.750000173887354  1.0000
  Sr  Sr1       1.0  1.0730402323233543e-08  0.9999999191596062  0.9999999999454724  1.0000
  Cl  Cl1       1.0  0.2669372786515667  0.266937188447694  0.7330627857834923  1.0000
  Cl  Cl2       1.0  0.7330627716721153  0.7330628245091971  0.2669371552793746  1.0000
  Cl  Cl3       1.0  0.7330627718499737  0.26693724048406725  0.26693720467481036  1.0000
  Cl  Cl4       1.0  0.2669372048113499  0.7330628085929983  0.7330628015037202  1.0000
  Cl  Cl5       1.0  0.26693725452852507  0.7330627972430419  0.26693714927688744  1.0000
  Cl  Cl6       1.0  0.7330627587925556  0.26693720023377354  0.7330627927484609  1.0000
