data_image0
_chemical_formula_structural       Ca2ScI6
_chemical_formula_sum              "Ca2 Sc1 I6"
_cell_length_a       7.966230578072244
_cell_length_b       7.966230494812424
_cell_length_c       7.966230451484761
_cell_angle_alpha    60.000000516086274
_cell_angle_beta     59.99999979032778
_cell_angle_gamma    60.00000015106623

_space_group_name_H-M_alt    "P 1"
_space_group_IT_number       1

loop_
  _space_group_symop_operation_xyz
  'x, y, z'

loop_
  _atom_site_type_symbol
  _atom_site_label
  _atom_site_symmetry_multiplicity
  _atom_site_fract_x
  _atom_site_fract_y
  _atom_site_fract_z
  _atom_site_occupancy
  Ca  Ca1       1.0  0.2500000316855771  0.2500000252716554  0.24999999138646511  1.0000
  Ca  Ca2       1.0  0.7499999736660077  0.7500000312297616  0.7499999291068762  1.0000
  Sc  Sc1       1.0  1.3206215885735529e-08  1.6911628854174484e-08  0.9999999510480084  1.0000
  I   I1        1.0  0.2531103799927427  0.2531103523528672  0.7468895939630068  1.0000
  I   I2        1.0  0.7468895972783942  0.7468896057536168  0.25311040859750766  1.0000
  I   I3        1.0  0.7468895914665323  0.253110388188532  0.2531103913741049  1.0000
  I   I4        1.0  0.25311035122017844  0.7468896606257813  0.7468896622085368  1.0000
  I   I5        1.0  0.25311040589195033  0.7468895728138767  0.2531104033790495  1.0000
  I   I6        1.0  0.7468896562411911  0.25311034378224595  0.746889674163655  1.0000
