data_image0
_chemical_formula_structural       Ca2TiI6
_chemical_formula_sum              "Ca2 Ti1 I6"
_cell_length_a       7.935926003778509
_cell_length_b       7.9359259456446445
_cell_length_c       7.935925942070403
_cell_angle_alpha    60.000000710181446
_cell_angle_beta     59.99999980717262
_cell_angle_gamma    59.999999790928726

_space_group_name_H-M_alt    "P 1"
_space_group_IT_number       1

loop_
  _space_group_symop_operation_xyz
  'x, y, z'

loop_
  _atom_site_type_symbol
  _atom_site_label
  _atom_site_symmetry_multiplicity
  _atom_site_fract_x
  _atom_site_fract_y
  _atom_site_fract_z
  _atom_site_occupancy
  Ca  Ca1       1.0  0.2500000166387959  0.24999999132444503  0.2499999875306265  1.0000
  Ca  Ca2       1.0  0.7499999525176816  0.7499999693434614  0.7500000866915292  1.0000
  Ti  Ti1       1.0  2.5779503986886084e-08  0.9999999706774576  1.771518973444909e-09  1.0000
  I   I1        1.0  0.24963035065481384  0.24963034380289384  0.7503696643137416  1.0000
  I   I2        1.0  0.7503696696621919  0.7503696554473046  0.24963032849432445  1.0000
  I   I3        1.0  0.750369649204273  0.24963039462995948  0.24963036193240823  1.0000
  I   I4        1.0  0.24963035997178468  0.7503696293129061  0.7503696203195213  1.0000
  I   I5        1.0  0.24963037367423457  0.7503696430340632  0.24963036092830698  1.0000
  I   I6        1.0  0.7503695992874706  0.2496303978850107  0.7503695931399227  1.0000
