data_image0
_chemical_formula_structural       Ca2TiBr6
_chemical_formula_sum              "Ca2 Ti1 Br6"
_cell_length_a       7.268776747656245
_cell_length_b       7.26877649275302
_cell_length_c       7.268776677421731
_cell_angle_alpha    59.99999921357195
_cell_angle_beta     59.9999997598643
_cell_angle_gamma    59.999999980002016

_space_group_name_H-M_alt    "P 1"
_space_group_IT_number       1

loop_
  _space_group_symop_operation_xyz
  'x, y, z'

loop_
  _atom_site_type_symbol
  _atom_site_label
  _atom_site_symmetry_multiplicity
  _atom_site_fract_x
  _atom_site_fract_y
  _atom_site_fract_z
  _atom_site_occupancy
  Ca  Ca1       1.0  0.24999997866020654  0.25000006740574965  0.24999996105554323  1.0000
  Ca  Ca2       1.0  0.750000025505367  0.7500000337232975  0.750000047844237  1.0000
  Ti  Ti1       1.0  2.9428573917163584e-08  1.179457692430284e-08  0.9999999436189942  1.0000
  Br  Br1       1.0  0.2494028587684958  0.24940284026228637  0.7505971278740285  1.0000
  Br  Br2       1.0  0.7505970667887777  0.7505971344962952  0.24940289546730682  1.0000
  Br  Br3       1.0  0.7505971535581222  0.24940292946920828  0.24940276853260668  1.0000
  Br  Br4       1.0  0.24940283364799845  0.7505970890978013  0.7505970975232947  1.0000
  Br  Br5       1.0  0.24940289771507168  0.7505970102237066  0.24940296433419407  1.0000
  Br  Br6       1.0  0.750597156935389  0.24940288702765856  0.7505971914250964  1.0000
