data_image0
_chemical_formula_structural       Ca2TiF6
_chemical_formula_sum              "Ca2 Ti1 F6"
_cell_length_a       5.69310531832938
_cell_length_b       5.693105164989761
_cell_length_c       5.693104649506427
_cell_angle_alpha    60.00000291148133
_cell_angle_beta     60.00000277750573
_cell_angle_gamma    60.00000098211765

_space_group_name_H-M_alt    "P 1"
_space_group_IT_number       1

loop_
  _space_group_symop_operation_xyz
  'x, y, z'

loop_
  _atom_site_type_symbol
  _atom_site_label
  _atom_site_symmetry_multiplicity
  _atom_site_fract_x
  _atom_site_fract_y
  _atom_site_fract_z
  _atom_site_occupancy
  Ca  Ca1       1.0  0.25000002114359504  0.25000003169304924  0.24999991779853015  1.0000
  Ca  Ca2       1.0  0.7499999397079165  0.750000095079149  0.7499999803690437  1.0000
  Ti  Ti1       1.0  2.9154724660973177e-08  0.9999999247052911  0.9999999738876886  1.0000
  F   F1        1.0  0.2483221244876712  0.24832211870738582  0.7516779377292525  1.0000
  F   F2        1.0  0.7516779183759329  0.7516779263162716  0.24832209731439017  1.0000
  F   F3        1.0  0.7516779000344356  0.24832207636687134  0.24832213751652832  1.0000
  F   F4        1.0  0.24832211310512106  0.7516777901007629  0.7516779630239117  1.0000
  F   F5        1.0  0.24832208233137743  0.7516779175464036  0.24832203482574383  1.0000
  F   F6        1.0  0.7516778684633546  0.24832206293893225  0.751677957322249  1.0000
