data_image0
_chemical_formula_structural       Ca2TiCl6
_chemical_formula_sum              "Ca2 Ti1 Cl6"
_cell_length_a       6.868610096687669
_cell_length_b       6.8686093202222525
_cell_length_c       6.868609529714479
_cell_angle_alpha    60.00000293384679
_cell_angle_beta     60.00000757404689
_cell_angle_gamma    59.99999863840968

_space_group_name_H-M_alt    "P 1"
_space_group_IT_number       1

loop_
  _space_group_symop_operation_xyz
  'x, y, z'

loop_
  _atom_site_type_symbol
  _atom_site_label
  _atom_site_symmetry_multiplicity
  _atom_site_fract_x
  _atom_site_fract_y
  _atom_site_fract_z
  _atom_site_occupancy
  Ca  Ca1       1.0  0.25000023775894675  0.24999986994240977  0.24999993729237768  1.0000
  Ca  Ca2       1.0  0.7500000558802256  0.7500000841330623  0.7499998932312226  1.0000
  Ti  Ti1       1.0  0.9999998662731775  4.814382476486329e-08  0.9999999627170644  1.0000
  Cl  Cl1       1.0  0.24843403961792154  0.2484340338488438  0.7515658749799887  1.0000
  Cl  Cl2       1.0  0.7515658763590661  0.7515660949708839  0.24843397547223783  1.0000
  Cl  Cl3       1.0  0.7515659793595241  0.24843388794026  0.2484340204957079  1.0000
  Cl  Cl4       1.0  0.24843384155958848  0.7515661124959478  0.7515662081066794  1.0000
  Cl  Cl5       1.0  0.2484339210916921  0.7515661330952286  0.24843391925966365  1.0000
  Cl  Cl6       1.0  0.7515661773853168  0.2484337407405458  0.7515661770839475  1.0000
