data_image0
_chemical_formula_structural       Ca2VF6
_chemical_formula_sum              "Ca2 V1 F6"
_cell_length_a       5.625886643561326
_cell_length_b       5.625887014546794
_cell_length_c       5.625886637050583
_cell_angle_alpha    60.000000117222356
_cell_angle_beta     60.00000288394316
_cell_angle_gamma    59.999999283457846

_space_group_name_H-M_alt    "P 1"
_space_group_IT_number       1

loop_
  _space_group_symop_operation_xyz
  'x, y, z'

loop_
  _atom_site_type_symbol
  _atom_site_label
  _atom_site_symmetry_multiplicity
  _atom_site_fract_x
  _atom_site_fract_y
  _atom_site_fract_z
  _atom_site_occupancy
  Ca  Ca1       1.0  0.25000009328211475  0.24999996633556643  0.24999992564260617  1.0000
  Ca  Ca2       1.0  0.7500000234715956  0.7499999969708449  0.7499999450079932  1.0000
  V   V1        1.0  0.9999999707673  2.6123773423238134e-08  0.9999999588945199  1.0000
  F   F1        1.0  0.24974618443306196  0.24974614137322562  0.7502539207888321  1.0000
  F   F2        1.0  0.7502538062693721  0.7502538306411051  0.24974623249814057  1.0000
  F   F3        1.0  0.7502538790764401  0.24974609099834882  0.24974624352512412  1.0000
  F   F4        1.0  0.2497461388275715  0.7502538178835387  0.7502537944149629  1.0000
  F   F5        1.0  0.24974604350703666  0.7502540115298599  0.24974610234011868  1.0000
  F   F6        1.0  0.7502538402352529  0.24974615205880135  0.750253837999986  1.0000
