data_image0
_chemical_formula_structural       Ca2VCl6
_chemical_formula_sum              "Ca2 V1 Cl6"
_cell_length_a       6.802793136859421
_cell_length_b       6.802793120638551
_cell_length_c       6.802793004964063
_cell_angle_alpha    60.00000113278551
_cell_angle_beta     60.00000194863718
_cell_angle_gamma    60.00000086404934

_space_group_name_H-M_alt    "P 1"
_space_group_IT_number       1

loop_
  _space_group_symop_operation_xyz
  'x, y, z'

loop_
  _atom_site_type_symbol
  _atom_site_label
  _atom_site_symmetry_multiplicity
  _atom_site_fract_x
  _atom_site_fract_y
  _atom_site_fract_z
  _atom_site_occupancy
  Ca  Ca1       1.0  0.2499999549541484  0.24999995488584473  0.24999996888342435  1.0000
  Ca  Ca2       1.0  0.7499998548133592  0.7499999762795989  0.74999986762366  1.0000
  V   V1        1.0  2.9814638097737825e-08  6.841352349704289e-08  5.27534480173361e-09  1.0000
  Cl  Cl1       1.0  0.2489527406996917  0.24895263102196838  0.7510473389918038  1.0000
  Cl  Cl2       1.0  0.7510473127361568  0.7510473991630492  0.24895272600709917  1.0000
  Cl  Cl3       1.0  0.7510473822710803  0.24895268291952866  0.2489526643424321  1.0000
  Cl  Cl4       1.0  0.24895269746702298  0.7510472734508978  0.7510473685532295  1.0000
  Cl  Cl5       1.0  0.24895265679848916  0.7510473807064623  0.24895268714862648  1.0000
  Cl  Cl6       1.0  0.7510473662902348  0.24895263867641998  0.7510473719651856  1.0000
