data_image0
_chemical_formula_structural       Ca2VBr6
_chemical_formula_sum              "Ca2 V1 Br6"
_cell_length_a       7.169539061175747
_cell_length_b       7.169539210456997
_cell_length_c       7.169539215697743
_cell_angle_alpha    60.00000116353089
_cell_angle_beta     59.99999911471204
_cell_angle_gamma    60.00000034076401

_space_group_name_H-M_alt    "P 1"
_space_group_IT_number       1

loop_
  _space_group_symop_operation_xyz
  'x, y, z'

loop_
  _atom_site_type_symbol
  _atom_site_label
  _atom_site_symmetry_multiplicity
  _atom_site_fract_x
  _atom_site_fract_y
  _atom_site_fract_z
  _atom_site_occupancy
  Ca  Ca1       1.0  0.25000002970414703  0.24999998952611555  0.24999997447106567  1.0000
  Ca  Ca2       1.0  0.7499999957806319  0.7499999924940094  0.7499999469629524  1.0000
  V   V1        1.0  0.9999999718220639  7.003872621660491e-08  1.114977046649256e-08  1.0000
  Br  Br1       1.0  0.25005938169240316  0.2500593603824019  0.7499406537981907  1.0000
  Br  Br2       1.0  0.7499406224977713  0.7499405840559694  0.25005941144676785  1.0000
  Br  Br3       1.0  0.749940670835096  0.25005931508323354  0.2500593731037899  1.0000
  Br  Br4       1.0  0.2500593281158349  0.7499406788947238  0.7499406323316739  1.0000
  Br  Br5       1.0  0.25005943503175404  0.7499405830090979  0.25005939565553437  1.0000
  Br  Br6       1.0  0.74994056087668  0.25005942975973694  0.7499406019057392  1.0000
