data_image0
_chemical_formula_structural       Ca2VI6
_chemical_formula_sum              "Ca2 V1 I6"
_cell_length_a       7.80903477801514
_cell_length_b       7.809034728678911
_cell_length_c       7.809034867508275
_cell_angle_alpha    59.99999982813057
_cell_angle_beta     60.000000278057506
_cell_angle_gamma    60.00000121179708

_space_group_name_H-M_alt    "P 1"
_space_group_IT_number       1

loop_
  _space_group_symop_operation_xyz
  'x, y, z'

loop_
  _atom_site_type_symbol
  _atom_site_label
  _atom_site_symmetry_multiplicity
  _atom_site_fract_x
  _atom_site_fract_y
  _atom_site_fract_z
  _atom_site_occupancy
  Ca  Ca1       1.0  0.2500000478954014  0.2500001284971967  0.24999992615665945  1.0000
  Ca  Ca2       1.0  0.7500000299260308  0.7499999149808614  0.7499999950519166  1.0000
  V   V1        1.0  0.9999999916507546  0.9999999984316309  3.3131302775937996e-08  1.0000
  I   I1        1.0  0.24876879489071133  0.24876882654905855  0.7512311903366627  1.0000
  I   I2        1.0  0.7512311863249945  0.7512311651728182  0.24876884090876983  1.0000
  I   I3        1.0  0.7512311481955134  0.24876880548004052  0.24876884984205538  1.0000
  I   I4        1.0  0.248768836605413  0.7512311533060855  0.7512311845535304  1.0000
  I   I5        1.0  0.248768822256206  0.7512311553197317  0.24876882161013303  1.0000
  I   I6        1.0  0.7512311399007604  0.24876885365420456  0.7512311605964883  1.0000
