data_image0
_chemical_formula_structural       Ca2YBr6
_chemical_formula_sum              "Ca2 Y1 Br6"
_cell_length_a       7.48721929211432
_cell_length_b       7.4872194206773415
_cell_length_c       7.4872194575143896
_cell_angle_alpha    59.99999855986675
_cell_angle_beta     59.999998216565
_cell_angle_gamma    59.99999910554998

_space_group_name_H-M_alt    "P 1"
_space_group_IT_number       1

loop_
  _space_group_symop_operation_xyz
  'x, y, z'

loop_
  _atom_site_type_symbol
  _atom_site_label
  _atom_site_symmetry_multiplicity
  _atom_site_fract_x
  _atom_site_fract_y
  _atom_site_fract_z
  _atom_site_occupancy
  Ca  Ca1       1.0  0.24999994971894995  0.24999995417567375  0.2500000504943855  1.0000
  Ca  Ca2       1.0  0.7500000247971327  0.7500000064757203  0.7500000237432862  1.0000
  Y   Y1        1.0  0.9999999878171716  4.5801859566357556e-08  0.9999999324373303  1.0000
  Br  Br1       1.0  0.25751601985654576  0.2575159832649885  0.7424839888940838  1.0000
  Br  Br2       1.0  0.7424839783996803  0.7424840264598265  0.25751599951926046  1.0000
  Br  Br3       1.0  0.7424839981177361  0.2575159751111404  0.25751601105922084  1.0000
  Br  Br4       1.0  0.2575160316379299  0.7424840002622802  0.7424839867937566  1.0000
  Br  Br5       1.0  0.257516007324204  0.7424840053558661  0.25751601455099615  1.0000
  Br  Br6       1.0  0.7424840007306551  0.2575160027331679  0.7424839924862806  1.0000
