data_image0
_chemical_formula_structural       Ca2YCl6
_chemical_formula_sum              "Ca2 Y1 Cl6"
_cell_length_a       7.091852487357303
_cell_length_b       7.091852452897728
_cell_length_c       7.09185248395182
_cell_angle_alpha    60.000001096134376
_cell_angle_beta     60.000001875679395
_cell_angle_gamma    60.00000082124587

_space_group_name_H-M_alt    "P 1"
_space_group_IT_number       1

loop_
  _space_group_symop_operation_xyz
  'x, y, z'

loop_
  _atom_site_type_symbol
  _atom_site_label
  _atom_site_symmetry_multiplicity
  _atom_site_fract_x
  _atom_site_fract_y
  _atom_site_fract_z
  _atom_site_occupancy
  Ca  Ca1       1.0  0.24999998681106853  0.2500000582135427  0.2500000563911898  1.0000
  Ca  Ca2       1.0  0.7500000063561046  0.7499999294102423  0.7500000178350626  1.0000
  Y   Y1        1.0  1.8584704082897436e-08  0.9999999930921016  0.9999999659602211  1.0000
  Cl  Cl1       1.0  0.25782918206006855  0.25782918681409406  0.7421707872060374  1.0000
  Cl  Cl2       1.0  0.7421708570411351  0.7421708681616969  0.25782910206093623  1.0000
  Cl  Cl3       1.0  0.7421708134943152  0.257829183606884  0.2578291333002616  1.0000
  Cl  Cl4       1.0  0.25782913868832125  0.7421707902011044  0.7421709203838169  1.0000
  Cl  Cl5       1.0  0.25782915646928045  0.74217086105104  0.25782910108464047  1.0000
  Cl  Cl6       1.0  0.7421708293131025  0.2578291438424899  0.7421709075661758  1.0000
