data_image0
_chemical_formula_structural       Ca2YF6
_chemical_formula_sum              "Ca2 Y1 F6"
_cell_length_a       6.037058252333117
_cell_length_b       6.037058316179522
_cell_length_c       6.037058442414424
_cell_angle_alpha    59.999998708631274
_cell_angle_beta     60.00000216651843
_cell_angle_gamma    59.99999916678237

_space_group_name_H-M_alt    "P 1"
_space_group_IT_number       1

loop_
  _space_group_symop_operation_xyz
  'x, y, z'

loop_
  _atom_site_type_symbol
  _atom_site_label
  _atom_site_symmetry_multiplicity
  _atom_site_fract_x
  _atom_site_fract_y
  _atom_site_fract_z
  _atom_site_occupancy
  Ca  Ca1       1.0  0.24999994533726075  0.2500001659279456  0.24999994081346855  1.0000
  Ca  Ca2       1.0  0.7500000272708701  0.7499999297446472  0.7500000042047205  1.0000
  Y   Y1        1.0  1.054793081836478e-08  4.868907371006275e-08  0.9999999422220884  1.0000
  F   F1        1.0  0.24939360193923926  0.2493935190217786  0.7506063579011599  1.0000
  F   F2        1.0  0.7506065038443722  0.7506064468132863  0.24939348937477743  1.0000
  F   F3        1.0  0.7506064198908816  0.24939355616910638  0.2493935645081318  1.0000
  F   F4        1.0  0.24939331558382982  0.7506064705273002  0.7506065882272374  1.0000
  F   F5        1.0  0.24939365209959313  0.7506062730819195  0.24939359871411612  1.0000
  F   F6        1.0  0.7506064903930656  0.2493936400066452  0.7506064553528501  1.0000
