data_image0
_chemical_formula_structural       Ca2YI6
_chemical_formula_sum              "Ca2 Y1 I6"
_cell_length_a       8.114993453210042
_cell_length_b       8.114993463003644
_cell_length_c       8.114993575596282
_cell_angle_alpha    60.00000025559759
_cell_angle_beta     60.000000105044315
_cell_angle_gamma    60.0000007822829

_space_group_name_H-M_alt    "P 1"
_space_group_IT_number       1

loop_
  _space_group_symop_operation_xyz
  'x, y, z'

loop_
  _atom_site_type_symbol
  _atom_site_label
  _atom_site_symmetry_multiplicity
  _atom_site_fract_x
  _atom_site_fract_y
  _atom_site_fract_z
  _atom_site_occupancy
  Ca  Ca1       1.0  0.24999998908736992  0.24999997403681948  0.25000002859410475  1.0000
  Ca  Ca2       1.0  0.7500000456510396  0.7499999900261252  0.749999967035403  1.0000
  Y   Y1        1.0  2.9321594931597004e-09  0.9999999954722891  4.146324223636414e-08  1.0000
  I   I1        1.0  0.25837298546869436  0.2583729886177145  0.741627040719777  1.0000
  I   I2        1.0  0.7416270132502747  0.7416270237408152  0.2583729980631331  1.0000
  I   I3        1.0  0.7416270477248945  0.25837298304583683  0.25837295699738333  1.0000
  I   I4        1.0  0.25837300334136865  0.7416269704524485  0.7416269889236261  1.0000
  I   I5        1.0  0.2583729609631798  0.7416270204639854  0.2583729882346449  1.0000
  I   I6        1.0  0.7416269541042034  0.2583730507547874  0.7416269890067244  1.0000
