data_image0
_chemical_formula_structural       Ca2ZnI6
_chemical_formula_sum              "Ca2 Zn1 I6"
_cell_length_a       7.741599051505821
_cell_length_b       7.741599126470676
_cell_length_c       7.741599159924062
_cell_angle_alpha    59.999999609840884
_cell_angle_beta     60.00000033477785
_cell_angle_gamma    59.99999957327439

_space_group_name_H-M_alt    "P 1"
_space_group_IT_number       1

loop_
  _space_group_symop_operation_xyz
  'x, y, z'

loop_
  _atom_site_type_symbol
  _atom_site_label
  _atom_site_symmetry_multiplicity
  _atom_site_fract_x
  _atom_site_fract_y
  _atom_site_fract_z
  _atom_site_occupancy
  Ca  Ca1       1.0  0.25000000679564716  0.24999988729456854  0.25000012375355835  1.0000
  Ca  Ca2       1.0  0.7500000894738218  0.7500000542273619  0.7499998499077807  1.0000
  Zn  Zn1       1.0  0.9999999786813919  0.9999999968359384  0.9999999941572157  1.0000
  I   I1        1.0  0.2525531340085862  0.25255318410622807  0.7474468381285932  1.0000
  I   I2        1.0  0.7474468188287436  0.7474468744859871  0.25255316938123634  1.0000
  I   I3        1.0  0.7474468650751533  0.25255314031989673  0.2525531883028286  1.0000
  I   I4        1.0  0.25255308847047575  0.7474469071981026  0.7474468179313454  1.0000
  I   I5        1.0  0.25255314094929493  0.7474468452141719  0.2525531798002288  1.0000
  I   I6        1.0  0.7474468789795371  0.2525531105460367  0.7474468365377941  1.0000
