data_image0
_chemical_formula_structural       Ca2ZnCl6
_chemical_formula_sum              "Ca2 Zn1 Cl6"
_cell_length_a       6.627578917256452
_cell_length_b       6.6275790305722335
_cell_length_c       6.627579016193326
_cell_angle_alpha    59.999999687576604
_cell_angle_beta     59.99999953554847
_cell_angle_gamma    59.99999972723223

_space_group_name_H-M_alt    "P 1"
_space_group_IT_number       1

loop_
  _space_group_symop_operation_xyz
  'x, y, z'

loop_
  _atom_site_type_symbol
  _atom_site_label
  _atom_site_symmetry_multiplicity
  _atom_site_fract_x
  _atom_site_fract_y
  _atom_site_fract_z
  _atom_site_occupancy
  Ca  Ca1       1.0  0.2500000410007312  0.24999997064715174  0.24999995003629075  1.0000
  Ca  Ca2       1.0  0.750000034128495  0.7499999433566406  0.7500000840412652  1.0000
  Zn  Zn1       1.0  2.2737011653804275e-08  2.5871329117918596e-08  9.187701699104209e-08  1.0000
  Cl  Cl1       1.0  0.25140510214116135  0.2514051844662435  0.7485948852645823  1.0000
  Cl  Cl2       1.0  0.7485948452560828  0.7485947886720175  0.25140513181094604  1.0000
  Cl  Cl3       1.0  0.7485948412758742  0.25140520408946865  0.2514051365912373  1.0000
  Cl  Cl4       1.0  0.25140517466759543  0.7485947986160261  0.7485948072860158  1.0000
  Cl  Cl5       1.0  0.25140513180581764  0.7485949006260167  0.25140515961020915  1.0000
  Cl  Cl6       1.0  0.7485948082509056  0.2514051833893719  0.7485947619404645  1.0000
