data_image0
_chemical_formula_structural       Ca2ZnF6
_chemical_formula_sum              "Ca2 Zn1 F6"
_cell_length_a       5.448799423408682
_cell_length_b       5.448799442896776
_cell_length_c       5.448799481089407
_cell_angle_alpha    60.00000025943436
_cell_angle_beta     59.999999901765165
_cell_angle_gamma    60.00000035793696

_space_group_name_H-M_alt    "P 1"
_space_group_IT_number       1

loop_
  _space_group_symop_operation_xyz
  'x, y, z'

loop_
  _atom_site_type_symbol
  _atom_site_label
  _atom_site_symmetry_multiplicity
  _atom_site_fract_x
  _atom_site_fract_y
  _atom_site_fract_z
  _atom_site_occupancy
  Ca  Ca1       1.0  0.24999998343194949  0.25000005149616705  0.24999998200498086  1.0000
  Ca  Ca2       1.0  0.7499999964074667  0.7499999589356928  0.7500000097239372  1.0000
  Zn  Zn1       1.0  0.9999999870498549  0.9999999752749321  0.9999999876380732  1.0000
  F   F1        1.0  0.253906107221773  0.2539060503337373  0.7460939297895903  1.0000
  F   F2        1.0  0.7460939093930057  0.7460939578503893  0.2539060777103127  1.0000
  F   F3        1.0  0.7460939698320772  0.2539060839480554  0.2539060247336678  1.0000
  F   F4        1.0  0.2539060158506892  0.7460939534566057  0.7460939726103742  1.0000
  F   F5        1.0  0.25390608295957123  0.7460938882474016  0.2539060669105869  1.0000
  F   F6        1.0  0.746093958850364  0.2539060952116573  0.7460939366837385  1.0000
