data_image0
_chemical_formula_structural       Ca2ZnBr6
_chemical_formula_sum              "Ca2 Zn1 Br6"
_cell_length_a       7.056851848064619
_cell_length_b       7.0568518804568
_cell_length_c       7.056851782782138
_cell_angle_alpha    60.00000000793398
_cell_angle_beta     59.99999987110835
_cell_angle_gamma    60.000000192238495

_space_group_name_H-M_alt    "P 1"
_space_group_IT_number       1

loop_
  _space_group_symop_operation_xyz
  'x, y, z'

loop_
  _atom_site_type_symbol
  _atom_site_label
  _atom_site_symmetry_multiplicity
  _atom_site_fract_x
  _atom_site_fract_y
  _atom_site_fract_z
  _atom_site_occupancy
  Ca  Ca1       1.0  0.2500000206513378  0.25000006285793225  0.24999989260864142  1.0000
  Ca  Ca2       1.0  0.7500000147373062  0.7499999473337363  0.7499999963529961  1.0000
  Zn  Zn1       1.0  0.9999999983807468  0.99999997049582  3.11494041356421e-08  1.0000
  Br  Br1       1.0  0.2527130091499314  0.2527130329606358  0.7472870009506024  1.0000
  Br  Br2       1.0  0.7472870133299341  0.7472869963219723  0.2527130337115166  1.0000
  Br  Br3       1.0  0.7472869875467647  0.2527130102683077  0.25271304369356096  1.0000
  Br  Br4       1.0  0.2527130247694646  0.7472869513282404  0.7472869873815315  1.0000
  Br  Br5       1.0  0.25271299025247335  0.7472869877488111  0.25271305212726636  1.0000
  Br  Br6       1.0  0.7472869422318377  0.2527130415337971  0.7472869694330677  1.0000
