data_image0
_chemical_formula_structural       Cd2AuCl6
_chemical_formula_sum              "Cd2 Au1 Cl6"
_cell_length_a       6.896585045960206
_cell_length_b       6.896585039779218
_cell_length_c       6.896585098033848
_cell_angle_alpha    59.99999954105153
_cell_angle_beta     59.999999753257384
_cell_angle_gamma    59.99999948142084

_space_group_name_H-M_alt    "P 1"
_space_group_IT_number       1

loop_
  _space_group_symop_operation_xyz
  'x, y, z'

loop_
  _atom_site_type_symbol
  _atom_site_label
  _atom_site_symmetry_multiplicity
  _atom_site_fract_x
  _atom_site_fract_y
  _atom_site_fract_z
  _atom_site_occupancy
  Cd  Cd1       1.0  0.2500000086941066  0.24999999157122405  0.250000022876299  1.0000
  Cd  Cd2       1.0  0.7500000158159202  0.7500000155587165  0.7500000069397991  1.0000
  Au  Au1       1.0  0.9999999704544186  0.9999999982241287  0.999999962010986  1.0000
  Cl  Cl1       1.0  0.25215685819149336  0.2521568308698517  0.7478431380181567  1.0000
  Cl  Cl2       1.0  0.7478431485946697  0.7478431691566032  0.2521568346119531  1.0000
  Cl  Cl3       1.0  0.7478431121705856  0.25215689577417577  0.25215683365404384  1.0000
  Cl  Cl4       1.0  0.2521568096814269  0.747843168183653  0.7478431973272225  1.0000
  Cl  Cl5       1.0  0.25215685357107515  0.7478431319048369  0.2521568268046621  1.0000
  Cl  Cl6       1.0  0.7478432164848022  0.2521567988626297  0.7478431792699374  1.0000
