data_image0
_chemical_formula_structural       Cd2AgI6
_chemical_formula_sum              "Cd2 Ag1 I6"
_cell_length_a       7.775631466125852
_cell_length_b       7.775631410028159
_cell_length_c       7.7756311512187555
_cell_angle_alpha    60.00000129632782
_cell_angle_beta     60.00000054885447
_cell_angle_gamma    59.999999964108135

_space_group_name_H-M_alt    "P 1"
_space_group_IT_number       1

loop_
  _space_group_symop_operation_xyz
  'x, y, z'

loop_
  _atom_site_type_symbol
  _atom_site_label
  _atom_site_symmetry_multiplicity
  _atom_site_fract_x
  _atom_site_fract_y
  _atom_site_fract_z
  _atom_site_occupancy
  Cd  Cd1       1.0  0.24999997599496993  0.24999992481005276  0.24999999116378355  1.0000
  Cd  Cd2       1.0  0.7500000086058934  0.7500000894514847  0.749999964722373  1.0000
  Ag  Ag1       1.0  0.9999999967159914  0.9999999385708409  0.999999917896422  1.0000
  I   I1        1.0  0.25979372888512464  0.259793752923883  0.7402062937793586  1.0000
  I   I2        1.0  0.740206292390948  0.740206284964254  0.25979368597080116  1.0000
  I   I3        1.0  0.7402062831886498  0.25979369297182325  0.2597937255985712  1.0000
  I   I4        1.0  0.25979367309120394  0.7402063527918478  0.7402063650203623  1.0000
  I   I5        1.0  0.25979370157229886  0.7402063991209713  0.25979365019362727  1.0000
  I   I6        1.0  0.7402063349452602  0.2597935663122608  0.7402064083199416  1.0000
