data_image0
_chemical_formula_structural       Cd2AgF6
_chemical_formula_sum              "Cd2 Ag1 F6"
_cell_length_a       5.616583279950364
_cell_length_b       5.616583282884765
_cell_length_c       5.6165833858823815
_cell_angle_alpha    60.00000011563611
_cell_angle_beta     59.9999996976647
_cell_angle_gamma    60.000000748844855

_space_group_name_H-M_alt    "P 1"
_space_group_IT_number       1

loop_
  _space_group_symop_operation_xyz
  'x, y, z'

loop_
  _atom_site_type_symbol
  _atom_site_label
  _atom_site_symmetry_multiplicity
  _atom_site_fract_x
  _atom_site_fract_y
  _atom_site_fract_z
  _atom_site_occupancy
  Cd  Cd1       1.0  0.25000003202655285  0.24999995171738873  0.2500000380636102  1.0000
  Cd  Cd2       1.0  0.7499999953594043  0.7500000339603015  0.750000053781589  1.0000
  Ag  Ag1       1.0  0.9999999727961539  0.9999999890970644  0.9999999887858796  1.0000
  F   F1        1.0  0.2630062068926384  0.26300620620855497  0.7369938122812738  1.0000
  F   F2        1.0  0.7369938117923673  0.7369937685661991  0.2630061540522901  1.0000
  F   F3        1.0  0.7369938132641378  0.2630061103670604  0.2630062598840118  1.0000
  F   F4        1.0  0.2630061914857738  0.7369939123806084  0.736993709015502  1.0000
  F   F5        1.0  0.2630061732577717  0.7369937280869814  0.2630062991691938  1.0000
  F   F6        1.0  0.7369937984947917  0.26300626413246886  0.7369937299801723  1.0000
