data_image0
_chemical_formula_structural       Cd2AuBr6
_chemical_formula_sum              "Cd2 Au1 Br6"
_cell_length_a       7.2148992101145275
_cell_length_b       7.21489917748075
_cell_length_c       7.214899156919995
_cell_angle_alpha    60.00000030000129
_cell_angle_beta     60.000000026681086
_cell_angle_gamma    59.99999974364482

_space_group_name_H-M_alt    "P 1"
_space_group_IT_number       1

loop_
  _space_group_symop_operation_xyz
  'x, y, z'

loop_
  _atom_site_type_symbol
  _atom_site_label
  _atom_site_symmetry_multiplicity
  _atom_site_fract_x
  _atom_site_fract_y
  _atom_site_fract_z
  _atom_site_occupancy
  Cd  Cd1       1.0  0.250000003963648  0.25000000575174847  0.249999993948039  1.0000
  Cd  Cd2       1.0  0.749999998812841  0.7500000036750708  0.7499999466625292  1.0000
  Au  Au1       1.0  0.9999998687473528  2.8857871263817187e-08  6.089953353905432e-08  1.0000
  Br  Br1       1.0  0.2563640404669911  0.2563640131665702  0.7436359999222671  1.0000
  Br  Br2       1.0  0.7436360185827943  0.7436360386982945  0.25636399805622867  1.0000
  Br  Br3       1.0  0.7436360616369042  0.2563639188762466  0.2563639886958315  1.0000
  Br  Br4       1.0  0.2563640462693395  0.7436359768166114  0.743635972849089  1.0000
  Br  Br5       1.0  0.25636396911857856  0.743636019415802  0.25636401119110347  1.0000
  Br  Br6       1.0  0.7436359924181735  0.25636399849862673  0.7436360178686082  1.0000
