data_image0
_chemical_formula_structural       Cd2AuF6
_chemical_formula_sum              "Cd2 Au1 F6"
_cell_length_a       5.744850849977874
_cell_length_b       5.744851410866818
_cell_length_c       5.744851363751664
_cell_angle_alpha    60.00000030466917
_cell_angle_beta     59.999997879516734
_cell_angle_gamma    59.999999651972416

_space_group_name_H-M_alt    "P 1"
_space_group_IT_number       1

loop_
  _space_group_symop_operation_xyz
  'x, y, z'

loop_
  _atom_site_type_symbol
  _atom_site_label
  _atom_site_symmetry_multiplicity
  _atom_site_fract_x
  _atom_site_fract_y
  _atom_site_fract_z
  _atom_site_occupancy
  Cd  Cd1       1.0  0.2499998528384315  0.25000010502304215  0.24999998061237283  1.0000
  Cd  Cd2       1.0  0.750000161493999  0.7499999291952189  0.7499999551329588  1.0000
  Au  Au1       1.0  2.2719349734477848e-08  0.9999999680214999  2.0295776984029624e-08  1.0000
  F   F1        1.0  0.25919959529925946  0.25919963770517906  0.7408004036990614  1.0000
  F   F2        1.0  0.7408004271949961  0.7408003901173817  0.25919957642112373  1.0000
  F   F3        1.0  0.7408004479069783  0.2591995818561374  0.25919967213644607  1.0000
  F   F4        1.0  0.2591995738383911  0.7408003095248252  0.7408003783196704  1.0000
  F   F5        1.0  0.259199496721599  0.7408003236588896  0.259199716456768  1.0000
  F   F6        1.0  0.7408004249081384  0.259199723350773  0.7408003149462591  1.0000
