data_image0
_chemical_formula_structural       Cd2AuI6
_chemical_formula_sum              "Cd2 Au1 I6"
_cell_length_a       7.794171019501451
_cell_length_b       7.794171222537163
_cell_length_c       7.794171235477261
_cell_angle_alpha    59.99999815289066
_cell_angle_beta     60.00000027206193
_cell_angle_gamma    60.00000135428008

_space_group_name_H-M_alt    "P 1"
_space_group_IT_number       1

loop_
  _space_group_symop_operation_xyz
  'x, y, z'

loop_
  _atom_site_type_symbol
  _atom_site_label
  _atom_site_symmetry_multiplicity
  _atom_site_fract_x
  _atom_site_fract_y
  _atom_site_fract_z
  _atom_site_occupancy
  Cd  Cd1       1.0  0.2499999889313923  0.2499999784424802  0.2500000141799709  1.0000
  Cd  Cd2       1.0  0.7500000146640478  0.7500000406085615  0.7499999518513055  1.0000
  Au  Au1       1.0  2.3778326577166564e-08  2.1999042067242254e-08  0.9999999103947932  1.0000
  I   I1        1.0  0.25999499295679185  0.25999496918719517  0.7400049926622732  1.0000
  I   I2        1.0  0.7400049914845334  0.7400050184366453  0.259995037149963  1.0000
  I   I3        1.0  0.7400049897405929  0.2599950242289623  0.25999504513894267  1.0000
  I   I4        1.0  0.2599949677488484  0.7400050042502371  0.7400049969667059  1.0000
  I   I5        1.0  0.25999501277056186  0.740004994159526  0.25999499422264716  1.0000
  I   I6        1.0  0.7400050159666378  0.25999494946623497  0.7400050585348734  1.0000
