data_image0
_chemical_formula_structural       Cd2AgCl6
_chemical_formula_sum              "Cd2 Ag1 Cl6"
_cell_length_a       6.8535154932319715
_cell_length_b       6.8535155384163255
_cell_length_c       6.853515456769487
_cell_angle_alpha    60.000000549081705
_cell_angle_beta     60.00000029971547
_cell_angle_gamma    60.000000635603506

_space_group_name_H-M_alt    "P 1"
_space_group_IT_number       1

loop_
  _space_group_symop_operation_xyz
  'x, y, z'

loop_
  _atom_site_type_symbol
  _atom_site_label
  _atom_site_symmetry_multiplicity
  _atom_site_fract_x
  _atom_site_fract_y
  _atom_site_fract_z
  _atom_site_occupancy
  Cd  Cd1       1.0  0.2500000360638942  0.24999991874347233  0.2500000715090797  1.0000
  Cd  Cd2       1.0  0.749999976141224  0.7499999956926466  0.7500000192881501  1.0000
  Ag  Ag1       1.0  0.999999962218336  3.752766276506531e-08  0.9999999315490565  1.0000
  Cl  Cl1       1.0  0.2545863593837613  0.25458640918780806  0.7454136138036405  1.0000
  Cl  Cl2       1.0  0.7454135906344632  0.7454135856647313  0.2545864051373027  1.0000
  Cl  Cl3       1.0  0.745413588805801  0.25458639569939107  0.2545863816225113  1.0000
  Cl  Cl4       1.0  0.254586468854645  0.7454135794958012  0.7454135816531533  1.0000
  Cl  Cl5       1.0  0.2545864224172351  0.7454136664273856  0.2545863558327057  1.0000
  Cl  Cl6       1.0  0.7454135950437681  0.25458641420266925  0.7454136477805086  1.0000
