data_image0
_chemical_formula_structural       Cd2AgBr6
_chemical_formula_sum              "Cd2 Ag1 Br6"
_cell_length_a       7.203117151447968
_cell_length_b       7.203117089804632
_cell_length_c       7.203117100769053
_cell_angle_alpha    60.00000003685813
_cell_angle_beta     60.000000036126124
_cell_angle_gamma    59.99999942475639

_space_group_name_H-M_alt    "P 1"
_space_group_IT_number       1

loop_
  _space_group_symop_operation_xyz
  'x, y, z'

loop_
  _atom_site_type_symbol
  _atom_site_label
  _atom_site_symmetry_multiplicity
  _atom_site_fract_x
  _atom_site_fract_y
  _atom_site_fract_z
  _atom_site_occupancy
  Cd  Cd1       1.0  0.2500000178803453  0.24999994764179648  0.25000002947343675  1.0000
  Cd  Cd2       1.0  0.7500000184514815  0.7500000350591131  0.7499999960653472  1.0000
  Ag  Ag1       1.0  0.999999938775435  4.4207759630766504e-08  0.9999999502003128  1.0000
  Br  Br1       1.0  0.2567038488034028  0.2567038460511653  0.7432961439239798  1.0000
  Br  Br2       1.0  0.7432961533613399  0.7432961910592943  0.25670382012692067  1.0000
  Br  Br3       1.0  0.7432962009281441  0.25670379549431643  0.25670381029428413  1.0000
  Br  Br4       1.0  0.25670382390724467  0.7432961736042056  0.7432961889218526  1.0000
  Br  Br5       1.0  0.25670382638291656  0.743296164260131  0.25670386281780655  1.0000
  Br  Br6       1.0  0.743296176009678  0.25670380483839106  0.7432962059278171  1.0000
