data_image0
_chemical_formula_structural       Cd2BeI6
_chemical_formula_sum              "Cd2 Be1 I6"
_cell_length_a       7.719208313722545
_cell_length_b       7.719208165675039
_cell_length_c       7.719208307881633
_cell_angle_alpha    60.000000244284486
_cell_angle_beta     60.00000005242668
_cell_angle_gamma    59.999998884304745

_space_group_name_H-M_alt    "P 1"
_space_group_IT_number       1

loop_
  _space_group_symop_operation_xyz
  'x, y, z'

loop_
  _atom_site_type_symbol
  _atom_site_label
  _atom_site_symmetry_multiplicity
  _atom_site_fract_x
  _atom_site_fract_y
  _atom_site_fract_z
  _atom_site_occupancy
  Cd  Cd1       1.0  0.24999992847337513  0.2500001047069092  0.24999997808669638  1.0000
  Cd  Cd2       1.0  0.7500000116066358  0.749999931745346  0.7500000006952957  1.0000
  Be  Be1       1.0  3.819808164878535e-08  0.9999999841338018  3.417549558405904e-08  1.0000
  I   I1        1.0  0.23937381282222225  0.2393738026206303  0.7606261708284973  1.0000
  I   I2        1.0  0.7606261999829772  0.7606261592604923  0.23937382183116282  1.0000
  I   I3        1.0  0.7606262111908161  0.23937378828726763  0.23937381885704773  1.0000
  I   I4        1.0  0.23937383725883893  0.7606261609008964  0.7606262089637708  1.0000
  I   I5        1.0  0.23937379660604322  0.7606261971624556  0.23937382367145468  1.0000
  I   I6        1.0  0.7606261683594766  0.2393738678489563  0.7606261387519618  1.0000
