data_image0
_chemical_formula_structural       Cd2BeCl6
_chemical_formula_sum              "Cd2 Be1 Cl6"
_cell_length_a       6.390996576919493
_cell_length_b       6.390996910526571
_cell_length_c       6.390996657659859
_cell_angle_alpha    59.99999947606716
_cell_angle_beta     60.000002204497186
_cell_angle_gamma    60.00000035575847

_space_group_name_H-M_alt    "P 1"
_space_group_IT_number       1

loop_
  _space_group_symop_operation_xyz
  'x, y, z'

loop_
  _atom_site_type_symbol
  _atom_site_label
  _atom_site_symmetry_multiplicity
  _atom_site_fract_x
  _atom_site_fract_y
  _atom_site_fract_z
  _atom_site_occupancy
  Cd  Cd1       1.0  0.24999999400744297  0.25000007573634975  0.25000009197920353  1.0000
  Cd  Cd2       1.0  0.7499996878834015  0.7500003345252065  0.7499999312326581  1.0000
  Be  Be1       1.0  0.9999999922625704  0.9999999635891665  1.26859248099983e-08  1.0000
  Cl  Cl1       1.0  0.24413627013077674  0.24413617421403694  0.7558638406740356  1.0000
  Cl  Cl2       1.0  0.7558638984649284  0.7558635998161002  0.24413636057140167  1.0000
  Cl  Cl3       1.0  0.7558638931935526  0.2441361210182836  0.24413625502587494  1.0000
  Cl  Cl4       1.0  0.2441362247032299  0.7558636587609397  0.7558637480716133  1.0000
  Cl  Cl5       1.0  0.24413622698557422  0.7558638660998471  0.24413616550049458  1.0000
  Cl  Cl6       1.0  0.7558637914796955  0.244136201133332  0.7558636215390744  1.0000
