data_image0
_chemical_formula_structural       Cd2BeBr6
_chemical_formula_sum              "Cd2 Be1 Br6"
_cell_length_a       6.9990571799520565
_cell_length_b       6.999056998829955
_cell_length_c       6.999057314262451
_cell_angle_alpha    59.999999684645225
_cell_angle_beta     59.999999697593644
_cell_angle_gamma    59.99999910665223

_space_group_name_H-M_alt    "P 1"
_space_group_IT_number       1

loop_
  _space_group_symop_operation_xyz
  'x, y, z'

loop_
  _atom_site_type_symbol
  _atom_site_label
  _atom_site_symmetry_multiplicity
  _atom_site_fract_x
  _atom_site_fract_y
  _atom_site_fract_z
  _atom_site_occupancy
  Cd  Cd1       1.0  0.2499999906464449  0.2500000671212399  0.24999993008328072  1.0000
  Cd  Cd2       1.0  0.749999974941641  0.7500000438753069  0.7500000303719717  1.0000
  Be  Be1       1.0  7.582775586112892e-09  0.9999999772516736  2.4727941300413585e-08  1.0000
  Br  Br1       1.0  0.24438528817925312  0.24438519996208982  0.7556147266724577  1.0000
  Br  Br2       1.0  0.7556147210727089  0.7556147552959126  0.24438525552979562  1.0000
  Br  Br3       1.0  0.7556147432834107  0.24438526888067344  0.24438526246883346  1.0000
  Br  Br4       1.0  0.24438523157158695  0.7556147598719233  0.7556147516201036  1.0000
  Br  Br5       1.0  0.24438527754418576  0.7556147257037017  0.2443852930445363  1.0000
  Br  Br6       1.0  0.7556147702535092  0.24438519805661824  0.7556147313541345  1.0000
