data_image0
_chemical_formula_structural       Cd2CoCl6
_chemical_formula_sum              "Cd2 Co1 Cl6"
_cell_length_a       6.748679267617856
_cell_length_b       6.748679181439844
_cell_length_c       6.748679175406829
_cell_angle_alpha    60.00000078809536
_cell_angle_beta     59.999998011976835
_cell_angle_gamma    59.99999901571656

_space_group_name_H-M_alt    "P 1"
_space_group_IT_number       1

loop_
  _space_group_symop_operation_xyz
  'x, y, z'

loop_
  _atom_site_type_symbol
  _atom_site_label
  _atom_site_symmetry_multiplicity
  _atom_site_fract_x
  _atom_site_fract_y
  _atom_site_fract_z
  _atom_site_occupancy
  Cd  Cd1       1.0  0.2500001363674485  0.2500001447257636  0.24999984624433746  1.0000
  Cd  Cd2       1.0  0.7500001751549663  0.7499998117036599  0.7500002292170614  1.0000
  Co  Co1       1.0  0.9999998914981362  7.259168499587436e-09  3.284009253324374e-08  1.0000
  Cl  Cl1       1.0  0.23785589524368786  0.23785606692288677  0.7621440684366858  1.0000
  Cl  Cl2       1.0  0.7621440034764074  0.7621439729869671  0.23785600572726553  1.0000
  Cl  Cl3       1.0  0.7621440627559988  0.2378558758050893  0.23785600741201532  1.0000
  Cl  Cl4       1.0  0.23785596581355894  0.7621439644776463  0.7621439445729887  1.0000
  Cl  Cl5       1.0  0.23785592649396162  0.7621440749116344  0.2378559634732203  1.0000
  Cl  Cl6       1.0  0.7621439772197406  0.23785603214551845  0.7621439042165638  1.0000
