data_image0
_chemical_formula_structural       Cd2CuI6
_chemical_formula_sum              "Cd2 Cu1 I6"
_cell_length_a       7.656930941385968
_cell_length_b       7.656930727611182
_cell_length_c       7.656930774241621
_cell_angle_alpha    60.00000076711569
_cell_angle_beta     60.000000064410195
_cell_angle_gamma    59.99999882062022

_space_group_name_H-M_alt    "P 1"
_space_group_IT_number       1

loop_
  _space_group_symop_operation_xyz
  'x, y, z'

loop_
  _atom_site_type_symbol
  _atom_site_label
  _atom_site_symmetry_multiplicity
  _atom_site_fract_x
  _atom_site_fract_y
  _atom_site_fract_z
  _atom_site_occupancy
  Cd  Cd1       1.0  0.2499999056874028  0.25000015532555253  0.24999994825480348  1.0000
  Cd  Cd2       1.0  0.7500000558789032  0.7499999381335503  0.7499999144634911  1.0000
  Cu  Cu1       1.0  0.9999999899768517  0.9999999984004755  5.873111486690444e-10  1.0000
  I   I1        1.0  0.2518734496759266  0.25187355878151607  0.7481264905850605  1.0000
  I   I2        1.0  0.7481265775753648  0.7481264642985077  0.2518735233650008  1.0000
  I   I3        1.0  0.7481265575066663  0.2518734900029101  0.25187344688064195  1.0000
  I   I4        1.0  0.25187348337982396  0.7481264243094436  0.7481265937395528  1.0000
  I   I5        1.0  0.2518734256181951  0.7481264672125547  0.2518735864775114  1.0000
  I   I6        1.0  0.7481265498577429  0.25187350308315976  0.7481265032604949  1.0000
