data_image0
_chemical_formula_structural       Cd2CBr6
_chemical_formula_sum              "Cd2 C1 Br6"
_cell_length_a       7.223094138376732
_cell_length_b       7.223094077036104
_cell_length_c       7.223094144532188
_cell_angle_alpha    60.000000868263
_cell_angle_beta     60.000000219774364
_cell_angle_gamma    60.00000007513482

_space_group_name_H-M_alt    "P 1"
_space_group_IT_number       1

loop_
  _space_group_symop_operation_xyz
  'x, y, z'

loop_
  _atom_site_type_symbol
  _atom_site_label
  _atom_site_symmetry_multiplicity
  _atom_site_fract_x
  _atom_site_fract_y
  _atom_site_fract_z
  _atom_site_occupancy
  Cd  Cd1       1.0  0.24999995233868483  0.24999999267633474  0.24999989142693918  1.0000
  Cd  Cd2       1.0  0.7500001417511345  0.7499998288165672  0.749999786497767  1.0000
  C   C1        1.0  3.528331969185102e-08  0.9999999660880818  0.9999999799320236  1.0000
  Br  Br1       1.0  0.24059962333430923  0.24059978486052458  0.759400371242625  1.0000
  Br  Br2       1.0  0.7594003785311587  0.7594003181013014  0.24059970353892335  1.0000
  Br  Br3       1.0  0.759400311793708  0.2405996326238315  0.2405997484514335  1.0000
  Br  Br4       1.0  0.2405996862788942  0.7594003618198576  0.7594003672566844  1.0000
  Br  Br5       1.0  0.24059962250496503  0.7594003909890419  0.2405997424773385  1.0000
  Br  Br6       1.0  0.7594002470460361  0.24059972045076405  0.7594004094513837  1.0000
