data_image0
_chemical_formula_structural       Cd2CaCl6
_chemical_formula_sum              "Cd2 Ca1 Cl6"
_cell_length_a       7.058570020723784
_cell_length_b       7.05856989705724
_cell_length_c       7.05857025749062
_cell_angle_alpha    59.99999580889691
_cell_angle_beta     59.99999499407102
_cell_angle_gamma    59.99999885231801

_space_group_name_H-M_alt    "P 1"
_space_group_IT_number       1

loop_
  _space_group_symop_operation_xyz
  'x, y, z'

loop_
  _atom_site_type_symbol
  _atom_site_label
  _atom_site_symmetry_multiplicity
  _atom_site_fract_x
  _atom_site_fract_y
  _atom_site_fract_z
  _atom_site_occupancy
  Cd  Cd1       1.0  0.24999986404370816  0.25000001717542486  0.2499999723934285  1.0000
  Cd  Cd2       1.0  0.7500000348944861  0.7500000237643976  0.750000085109668  1.0000
  Ca  Ca1       1.0  1.0044906365399053e-08  1.0237194125569129e-07  0.999999929624399  1.0000
  Cl  Cl1       1.0  0.2605761373286688  0.260576248408981  0.7394238175540178  1.0000
  Cl  Cl2       1.0  0.7394237505893154  0.7394237127154294  0.26057628961704415  1.0000
  Cl  Cl3       1.0  0.7394237734378012  0.26057627506775244  0.26057627316881765  1.0000
  Cl  Cl4       1.0  0.26057618926584397  0.7394238248660718  0.7394236620356971  1.0000
  Cl  Cl5       1.0  0.26057633696143623  0.7394236492099218  0.2605762952148646  1.0000
  Cl  Cl6       1.0  0.7394239056487232  0.26057615575391024  0.7394236588551263  1.0000
