data_image0
_chemical_formula_structural       Cd2CrBr6
_chemical_formula_sum              "Cd2 Cr1 Br6"
_cell_length_a       7.295558973301353
_cell_length_b       7.2955590530015275
_cell_length_c       7.2955589845643125
_cell_angle_alpha    59.999999545310516
_cell_angle_beta     59.999999950047936
_cell_angle_gamma    59.99999752148535

_space_group_name_H-M_alt    "P 1"
_space_group_IT_number       1

loop_
  _space_group_symop_operation_xyz
  'x, y, z'

loop_
  _atom_site_type_symbol
  _atom_site_label
  _atom_site_symmetry_multiplicity
  _atom_site_fract_x
  _atom_site_fract_y
  _atom_site_fract_z
  _atom_site_occupancy
  Cd  Cd1       1.0  0.25000000806678807  0.25000000616906193  0.24999996645345673  1.0000
  Cd  Cd2       1.0  0.7500000086609488  0.7500000033983997  0.7499999887021029  1.0000
  Cr  Cr1       1.0  2.5373331206051873e-08  0.9999999143835461  4.078320998978791e-09  1.0000
  Br  Br1       1.0  0.2397388731302713  0.2397388852689154  0.7602611256442402  1.0000
  Br  Br2       1.0  0.760261114260452  0.7602611410860862  0.23973889335532544  1.0000
  Br  Br3       1.0  0.7602611560893462  0.23973889672889903  0.23973884779547516  1.0000
  Br  Br4       1.0  0.2397388481355079  0.7602611598436743  0.7602611161522105  1.0000
  Br  Br5       1.0  0.23973881776725867  0.7602611559661864  0.2397388870654853  1.0000
  Br  Br6       1.0  0.7602611636929987  0.23973882170494965  0.7602611702068214  1.0000
