data_image0
_chemical_formula_structural       Cd2CrF6
_chemical_formula_sum              "Cd2 Cr1 F6"
_cell_length_a       5.574143050676293
_cell_length_b       5.574143473180607
_cell_length_c       5.574143273308113
_cell_angle_alpha    59.99999761265007
_cell_angle_beta     59.99999786864517
_cell_angle_gamma    59.99999916820099

_space_group_name_H-M_alt    "P 1"
_space_group_IT_number       1

loop_
  _space_group_symop_operation_xyz
  'x, y, z'

loop_
  _atom_site_type_symbol
  _atom_site_label
  _atom_site_symmetry_multiplicity
  _atom_site_fract_x
  _atom_site_fract_y
  _atom_site_fract_z
  _atom_site_occupancy
  Cd  Cd1       1.0  0.24999979342290524  0.2500000187336238  0.2500001759395443  1.0000
  Cd  Cd2       1.0  0.7499999186799241  0.7499999573273572  0.7499999958941921  1.0000
  Cr  Cr1       1.0  2.4607044199872416e-08  1.318313359567998e-08  5.10708194137556e-08  1.0000
  F   F1        1.0  0.2454736048631389  0.24547349985568465  0.7545263510088511  1.0000
  F   F2        1.0  0.7545263812058719  0.7545264124868072  0.24547358473921002  1.0000
  F   F3        1.0  0.7545262951767031  0.24547371722109912  0.245473641239209  1.0000
  F   F4        1.0  0.24547371704299226  0.7545264895447642  0.754526324385568  1.0000
  F   F5        1.0  0.24547378570005135  0.7545261966072119  0.24547363668345348  1.0000
  F   F6        1.0  0.7545264957612813  0.24547368717181275  0.7545262517620671  1.0000
