data_image0
_chemical_formula_structural       Cd2CuCl6
_chemical_formula_sum              "Cd2 Cu1 Cl6"
_cell_length_a       6.652078720547662
_cell_length_b       6.652078956685621
_cell_length_c       6.6520788734840695
_cell_angle_alpha    60.00000292319544
_cell_angle_beta     59.999999613051486
_cell_angle_gamma    60.00000173572726

_space_group_name_H-M_alt    "P 1"
_space_group_IT_number       1

loop_
  _space_group_symop_operation_xyz
  'x, y, z'

loop_
  _atom_site_type_symbol
  _atom_site_label
  _atom_site_symmetry_multiplicity
  _atom_site_fract_x
  _atom_site_fract_y
  _atom_site_fract_z
  _atom_site_occupancy
  Cd  Cd1       1.0  0.2499998439725684  0.2500000383214724  0.2500001189082844  1.0000
  Cd  Cd2       1.0  0.7500000082263605  0.7499999879253388  0.7499999505834881  1.0000
  Cu  Cu1       1.0  0.9999999774158953  3.129948084082727e-08  0.9999999791061285  1.0000
  Cl  Cl1       1.0  0.2477827777967147  0.24778284630675204  0.7522171417114781  1.0000
  Cl  Cl2       1.0  0.7522172506706533  0.7522171302291172  0.2477828374423353  1.0000
  Cl  Cl3       1.0  0.75221722448357  0.24778278835573236  0.24778275593081373  1.0000
  Cl  Cl4       1.0  0.24778284243726942  0.752217083234819  0.7522173166004988  1.0000
  Cl  Cl5       1.0  0.2477828223768603  0.7522171377193053  0.24778281900736565  1.0000
  Cl  Cl6       1.0  0.7522172419626603  0.2477829603321977  0.752217111518346  1.0000
