data_image0
_chemical_formula_structural       Cd2CI6
_chemical_formula_sum              "Cd2 C1 I6"
_cell_length_a       7.6513968189913255
_cell_length_b       7.651396807024891
_cell_length_c       7.651397028726467
_cell_angle_alpha    59.99999960010796
_cell_angle_beta     59.99999855128231
_cell_angle_gamma    59.99999995882477

_space_group_name_H-M_alt    "P 1"
_space_group_IT_number       1

loop_
  _space_group_symop_operation_xyz
  'x, y, z'

loop_
  _atom_site_type_symbol
  _atom_site_label
  _atom_site_symmetry_multiplicity
  _atom_site_fract_x
  _atom_site_fract_y
  _atom_site_fract_z
  _atom_site_occupancy
  Cd  Cd1       1.0  0.24999993038271687  0.25000009326822786  0.24999999547742816  1.0000
  Cd  Cd2       1.0  0.7500000028433113  0.7500000204942946  0.7500000690526858  1.0000
  C   C1        1.0  9.313748173762512e-09  1.2805451933606541e-08  4.90601399617301e-08  1.0000
  I   I1        1.0  0.24657973528646396  0.2465797629777112  0.7534202458375713  1.0000
  I   I2        1.0  0.7534202387490877  0.7534202419384736  0.2465797167880588  1.0000
  I   I3        1.0  0.7534202586170874  0.24657971368100512  0.2465797433966684  1.0000
  I   I4        1.0  0.24657978426077737  0.7534202160031531  0.7534202250377193  1.0000
  I   I5        1.0  0.24657979884111236  0.7534201941481312  0.24657973203892367  1.0000
  I   I6        1.0  0.7534202308965361  0.24657973873738967  0.7534202348301366  1.0000
