data_image0
_chemical_formula_structural       Cd2CaBr6
_chemical_formula_sum              "Cd2 Ca1 Br6"
_cell_length_a       7.547292289288521
_cell_length_b       7.547292198187
_cell_length_c       7.547292221249289
_cell_angle_alpha    59.99999967178624
_cell_angle_beta     60.000000161326824
_cell_angle_gamma    59.999998255780156

_space_group_name_H-M_alt    "P 1"
_space_group_IT_number       1

loop_
  _space_group_symop_operation_xyz
  'x, y, z'

loop_
  _atom_site_type_symbol
  _atom_site_label
  _atom_site_symmetry_multiplicity
  _atom_site_fract_x
  _atom_site_fract_y
  _atom_site_fract_z
  _atom_site_occupancy
  Cd  Cd1       1.0  0.2500000483755347  0.24999994269604772  0.2499999732191672  1.0000
  Cd  Cd2       1.0  0.7499999410063397  0.7499999952324939  0.7500000057193622  1.0000
  Ca  Ca1       1.0  2.5561094828219713e-08  0.9999999967544786  0.9999998563443623  1.0000
  Br  Br1       1.0  0.2626239631950033  0.2626239597140885  0.737375984658284  1.0000
  Br  Br2       1.0  0.7373760207298973  0.7373760772028535  0.2626239117401121  1.0000
  Br  Br3       1.0  0.7373760156124642  0.26262397534691523  0.26262396316802394  1.0000
  Br  Br4       1.0  0.2626238626819569  0.7373761719177525  0.7373761547931171  1.0000
  Br  Br5       1.0  0.26262399880856946  0.7373760317144006  0.2626239655870756  1.0000
  Br  Br6       1.0  0.7373761313608643  0.262623851040276  0.7373761812161894  1.0000
