data_image0
_chemical_formula_structural       Cd2CF6
_chemical_formula_sum              "Cd2 C1 F6"
_cell_length_a       5.037631807225604
_cell_length_b       5.037631762116262
_cell_length_c       5.037631752216813
_cell_angle_alpha    59.999999552142214
_cell_angle_beta     59.999999031647214
_cell_angle_gamma    60.0000007794701

_space_group_name_H-M_alt    "P 1"
_space_group_IT_number       1

loop_
  _space_group_symop_operation_xyz
  'x, y, z'

loop_
  _atom_site_type_symbol
  _atom_site_label
  _atom_site_symmetry_multiplicity
  _atom_site_fract_x
  _atom_site_fract_y
  _atom_site_fract_z
  _atom_site_occupancy
  Cd  Cd1       1.0  0.2499999343655141  0.2500000039533423  0.25000004202745096  1.0000
  Cd  Cd2       1.0  0.7500000249265909  0.749999958373812  0.7499999803735818  1.0000
  C   C1        1.0  0.9999999535292724  1.5316507858727907e-07  1.3920361963786033e-07  1.0000
  F   F1        1.0  0.21985492004984106  0.21985486176300867  0.7801451333830624  1.0000
  F   F2        1.0  0.7801451390996939  0.7801451929494331  0.21985481870238718  1.0000
  F   F3        1.0  0.7801451875629567  0.21985473660771243  0.2198547324585985  1.0000
  F   F4        1.0  0.21985488506548337  0.7801450920038983  0.7801451393421986  1.0000
  F   F5        1.0  0.21985491710586197  0.7801450802904735  0.21985482833290426  1.0000
  F   F6        1.0  0.7801450322072477  0.21985488446787238  0.7801452137225086  1.0000
