data_image0
_chemical_formula_structural       Cd2CCl6
_chemical_formula_sum              "Cd2 C1 Cl6"
_cell_length_a       6.70803744512531
_cell_length_b       6.708037651137074
_cell_length_c       6.708037622973647
_cell_angle_alpha    60.00000054843258
_cell_angle_beta     59.99999985887433
_cell_angle_gamma    59.999999795865925

_space_group_name_H-M_alt    "P 1"
_space_group_IT_number       1

loop_
  _space_group_symop_operation_xyz
  'x, y, z'

loop_
  _atom_site_type_symbol
  _atom_site_label
  _atom_site_symmetry_multiplicity
  _atom_site_fract_x
  _atom_site_fract_y
  _atom_site_fract_z
  _atom_site_occupancy
  Cd  Cd1       1.0  0.2499999026098961  0.25000009483154984  0.24999986607292382  1.0000
  Cd  Cd2       1.0  0.7499999419419751  0.749999922988801  0.7499999913710691  1.0000
  C   C1        1.0  7.219306467894967e-08  5.477360350418331e-09  0.9999998687383534  1.0000
  Cl  Cl1       1.0  0.24525895403294426  0.2452588261355938  0.754741169734799  1.0000
  Cl  Cl2       1.0  0.7547410720979862  0.754741147865865  0.24525886927493365  1.0000
  Cl  Cl3       1.0  0.7547410886986999  0.24525890226100996  0.24525901680243156  1.0000
  Cl  Cl4       1.0  0.24525894675208895  0.7547410644373005  0.7547411270421209  1.0000
  Cl  Cl5       1.0  0.24525894278605456  0.7547410598371077  0.24525897244536535  1.0000
  Cl  Cl6       1.0  0.7547410804749041  0.2452589744153258  0.7547411049575685  1.0000
