data_image0
_chemical_formula_structural       Cd2CoI6
_chemical_formula_sum              "Cd2 Co1 I6"
_cell_length_a       7.679668610739961
_cell_length_b       7.679668758879365
_cell_length_c       7.679668773056246
_cell_angle_alpha    60.00000066372589
_cell_angle_beta     60.00000022772235
_cell_angle_gamma    60.00000109945251

_space_group_name_H-M_alt    "P 1"
_space_group_IT_number       1

loop_
  _space_group_symop_operation_xyz
  'x, y, z'

loop_
  _atom_site_type_symbol
  _atom_site_label
  _atom_site_symmetry_multiplicity
  _atom_site_fract_x
  _atom_site_fract_y
  _atom_site_fract_z
  _atom_site_occupancy
  Cd  Cd1       1.0  0.24999999232546807  0.2499999702488517  0.2499999962427826  1.0000
  Cd  Cd2       1.0  0.7500000160824821  0.7500000415192251  0.7500000366072032  1.0000
  Co  Co1       1.0  1.5916589229256724e-08  6.3791544799130405e-09  0.9999999471836645  1.0000
  I   I1        1.0  0.24564170420338216  0.24564170864465687  0.754358302754955  1.0000
  I   I2        1.0  0.7543582867088378  0.7543582744172239  0.24564170501683227  1.0000
  I   I3        1.0  0.7543583133068068  0.24564172735611892  0.2456416967963595  1.0000
  I   I4        1.0  0.24564164874809977  0.7543582971702667  0.7543583111825296  1.0000
  I   I5        1.0  0.24564171298880735  0.7543582931774215  0.24564172889338912  1.0000
  I   I6        1.0  0.7543583071142591  0.24564168350530483  0.7543582765875287  1.0000
