data_image0
_chemical_formula_structural       Cd2CrCl6
_chemical_formula_sum              "Cd2 Cr1 Cl6"
_cell_length_a       6.9441109342709195
_cell_length_b       6.944110903555468
_cell_length_c       6.94411064811887
_cell_angle_alpha    59.999997768530044
_cell_angle_beta     60.000000886107834
_cell_angle_gamma    59.999999156238445

_space_group_name_H-M_alt    "P 1"
_space_group_IT_number       1

loop_
  _space_group_symop_operation_xyz
  'x, y, z'

loop_
  _atom_site_type_symbol
  _atom_site_label
  _atom_site_symmetry_multiplicity
  _atom_site_fract_x
  _atom_site_fract_y
  _atom_site_fract_z
  _atom_site_occupancy
  Cd  Cd1       1.0  0.2500000152692575  0.25000002505269553  0.2499998710331667  1.0000
  Cd  Cd2       1.0  0.749999973988341  0.7499999464067154  0.7499997868284353  1.0000
  Cr  Cr1       1.0  0.9999999083069752  7.054869500467324e-08  1.9317481165627895e-09  1.0000
  Cl  Cl1       1.0  0.23678444674333796  0.23678445976318047  0.7632155601542301  1.0000
  Cl  Cl2       1.0  0.763215481138683  0.7632155910634942  0.2367845740148537  1.0000
  Cl  Cl3       1.0  0.7632155648152154  0.23678441255364502  0.2367845194121912  1.0000
  Cl  Cl4       1.0  0.2367844871609029  0.7632155253951228  0.7632154766624317  1.0000
  Cl  Cl5       1.0  0.23678441307222797  0.763215615573442  0.23678454819581288  1.0000
  Cl  Cl6       1.0  0.763215716939602  0.23678435764966332  0.7632156662770051  1.0000
