data_image0
_chemical_formula_structural       Cd2CrI6
_chemical_formula_sum              "Cd2 Cr1 I6"
_cell_length_a       7.923151788963833
_cell_length_b       7.9231516972261735
_cell_length_c       7.923152289428898
_cell_angle_alpha    59.99999778858943
_cell_angle_beta     59.999997606547495
_cell_angle_gamma    60.00000273165553

_space_group_name_H-M_alt    "P 1"
_space_group_IT_number       1

loop_
  _space_group_symop_operation_xyz
  'x, y, z'

loop_
  _atom_site_type_symbol
  _atom_site_label
  _atom_site_symmetry_multiplicity
  _atom_site_fract_x
  _atom_site_fract_y
  _atom_site_fract_z
  _atom_site_occupancy
  Cd  Cd1       1.0  0.25000000487058127  0.2500000212820952  0.2500000190628155  1.0000
  Cd  Cd2       1.0  0.7500000109771873  0.7499999741910495  0.7499999649997119  1.0000
  Cr  Cr1       1.0  0.9999998519513869  0.9999999938168729  7.711587044110497e-08  1.0000
  I   I1        1.0  0.23956845795942303  0.23956847696304706  0.7604315262225612  1.0000
  I   I2        1.0  0.7604317003423374  0.7604315633377225  0.2395683856552641  1.0000
  I   I3        1.0  0.7604314541372829  0.23956853604465622  0.23956853468752431  1.0000
  I   I4        1.0  0.2395685188277715  0.7604314918898649  0.7604315214782396  1.0000
  I   I5        1.0  0.23956853959743998  0.7604314387392664  0.2395684708933632  1.0000
  I   I6        1.0  0.7604314626490246  0.23956850572313979  0.760431502562972  1.0000
