data_image0
_chemical_formula_structural       Cd2CaI6
_chemical_formula_sum              "Cd2 Ca1 I6"
_cell_length_a       8.304354551927114
_cell_length_b       8.304354357716376
_cell_length_c       8.304354558417439
_cell_angle_alpha    59.999999987879
_cell_angle_beta     59.99999838011955
_cell_angle_gamma    59.99999915319299

_space_group_name_H-M_alt    "P 1"
_space_group_IT_number       1

loop_
  _space_group_symop_operation_xyz
  'x, y, z'

loop_
  _atom_site_type_symbol
  _atom_site_label
  _atom_site_symmetry_multiplicity
  _atom_site_fract_x
  _atom_site_fract_y
  _atom_site_fract_z
  _atom_site_occupancy
  Cd  Cd1       1.0  0.2500000478027673  0.2500000818647446  0.24999997588398915  1.0000
  Cd  Cd2       1.0  0.7499999828482332  0.7499999639031328  0.7500000102959896  1.0000
  Ca  Ca1       1.0  0.9999999594256431  0.9999998672659723  0.9999999578061289  1.0000
  I   I1        1.0  0.2635810868241882  0.26358115904607876  0.736418926224414  1.0000
  I   I2        1.0  0.7364189885870743  0.7364189943838397  0.2635808512837876  1.0000
  I   I3        1.0  0.7364188692219793  0.2635811501013285  0.26358114462866017  1.0000
  I   I4        1.0  0.26358098587718715  0.7364189384364035  0.7364190115024362  1.0000
  I   I5        1.0  0.26358108435609157  0.7364188826987722  0.2635811732517471  1.0000
  I   I6        1.0  0.7364189964678168  0.26358096249324464  0.7364189495432689  1.0000
