data_image0
_chemical_formula_structural       Cd2CoBr6
_chemical_formula_sum              "Cd2 Co1 Br6"
_cell_length_a       7.153979266139399
_cell_length_b       7.15397927798284
_cell_length_c       7.1539793049527844
_cell_angle_alpha    59.9999991244816
_cell_angle_beta     59.999999136534115
_cell_angle_gamma    59.99999932451325

_space_group_name_H-M_alt    "P 1"
_space_group_IT_number       1

loop_
  _space_group_symop_operation_xyz
  'x, y, z'

loop_
  _atom_site_type_symbol
  _atom_site_label
  _atom_site_symmetry_multiplicity
  _atom_site_fract_x
  _atom_site_fract_y
  _atom_site_fract_z
  _atom_site_occupancy
  Cd  Cd1       1.0  0.24999994950905985  0.25000011621428303  0.24999999483340546  1.0000
  Cd  Cd2       1.0  0.7499999955109967  0.7500000045354481  0.7500001194054189  1.0000
  Co  Co1       1.0  2.9070013534004645e-08  0.9999999708963886  5.592973674888768e-08  1.0000
  Br  Br1       1.0  0.24455963914139775  0.24455960747987307  0.7554403509799879  1.0000
  Br  Br2       1.0  0.7554403791663502  0.7554403660398269  0.2445595849651963  1.0000
  Br  Br3       1.0  0.755440362919728  0.24455965622724293  0.24455961872288634  1.0000
  Br  Br4       1.0  0.24455962452491795  0.7554403275643199  0.7554403387005053  1.0000
  Br  Br5       1.0  0.24455967585048238  0.7554403100484459  0.24455962530416767  1.0000
  Br  Br6       1.0  0.7554403361968148  0.24455965319939152  0.7554403147137032  1.0000
