data_image0
_chemical_formula_structural       Cd2FeBr6
_chemical_formula_sum              "Cd2 Fe1 Br6"
_cell_length_a       7.4466445528507865
_cell_length_b       7.446644269255863
_cell_length_c       7.4466450128113415
_cell_angle_alpha    59.999995894104515
_cell_angle_beta     59.999991435704246
_cell_angle_gamma    59.99999684679979

_space_group_name_H-M_alt    "P 1"
_space_group_IT_number       1

loop_
  _space_group_symop_operation_xyz
  'x, y, z'

loop_
  _atom_site_type_symbol
  _atom_site_label
  _atom_site_symmetry_multiplicity
  _atom_site_fract_x
  _atom_site_fract_y
  _atom_site_fract_z
  _atom_site_occupancy
  Cd  Cd1       1.0  0.2500002395639064  0.2499997653875258  0.25000001774154157  1.0000
  Cd  Cd2       1.0  0.750000018998834  0.7500000741027033  0.7499998529546389  1.0000
  Fe  Fe1       1.0  0.9999999792935448  1.6446948862648232e-09  9.816139854610107e-08  1.0000
  Br  Br1       1.0  0.21538154696228917  0.2153813100892408  0.7846185108313541  1.0000
  Br  Br2       1.0  0.784618643415515  0.7846187711709672  0.21538131201601912  1.0000
  Br  Br3       1.0  0.7846185864546519  0.21538128881624113  0.21538167692456991  1.0000
  Br  Br4       1.0  0.21538116130504212  0.7846187200774403  0.784618568590199  1.0000
  Br  Br5       1.0  0.21538120928806428  0.7846186092604267  0.21538160902570827  1.0000
  Br  Br6       1.0  0.7846186343770539  0.2153813305561184  0.7846185895027468  1.0000
