data_image0
_chemical_formula_structural       Cd2FeF6
_chemical_formula_sum              "Cd2 Fe1 F6"
_cell_length_a       5.451900035852323
_cell_length_b       5.4518999602473555
_cell_length_c       5.451899912682457
_cell_angle_alpha    60.00000006398645
_cell_angle_beta     60.000001180517124
_cell_angle_gamma    60.00000083496597

_space_group_name_H-M_alt    "P 1"
_space_group_IT_number       1

loop_
  _space_group_symop_operation_xyz
  'x, y, z'

loop_
  _atom_site_type_symbol
  _atom_site_label
  _atom_site_symmetry_multiplicity
  _atom_site_fract_x
  _atom_site_fract_y
  _atom_site_fract_z
  _atom_site_occupancy
  Cd  Cd1       1.0  0.2499999305339728  0.2500000272311345  0.25000006253549645  1.0000
  Cd  Cd2       1.0  0.7500000218852826  0.7500000008210208  0.7500000835534323  1.0000
  Fe  Fe1       1.0  1.0278147474033308e-09  0.999999946085077  0.9999999218928455  1.0000
  F   F1        1.0  0.2504600039746921  0.25046002727066874  0.7495398448791222  1.0000
  F   F2        1.0  0.7495399704392911  0.7495398839658206  0.25046004964193325  1.0000
  F   F3        1.0  0.7495399143144639  0.25046008471050485  0.25046004314936926  1.0000
  F   F4        1.0  0.2504599420872599  0.7495400916076893  0.7495400162859474  1.0000
  F   F5        1.0  0.2504601123328702  0.7495399746333034  0.25045993983679526  1.0000
  F   F6        1.0  0.7495400954220997  0.25045995457482834  0.7495400711453774  1.0000
