data_image0
_chemical_formula_structural       Cd2GeBr6
_chemical_formula_sum              "Cd2 Ge1 Br6"
_cell_length_a       7.4056050953383
_cell_length_b       7.405605212089999
_cell_length_c       7.405605048126396
_cell_angle_alpha    59.99999998737537
_cell_angle_beta     60.00000005143678
_cell_angle_gamma    60.00000081078622

_space_group_name_H-M_alt    "P 1"
_space_group_IT_number       1

loop_
  _space_group_symop_operation_xyz
  'x, y, z'

loop_
  _atom_site_type_symbol
  _atom_site_label
  _atom_site_symmetry_multiplicity
  _atom_site_fract_x
  _atom_site_fract_y
  _atom_site_fract_z
  _atom_site_occupancy
  Cd  Cd1       1.0  0.2499999792536301  0.24999999438325152  0.2500000392808987  1.0000
  Cd  Cd2       1.0  0.7499999980977553  0.7500000079568745  0.750000009104604  1.0000
  Ge  Ge1       1.0  0.9999999621515838  1.0418989944764133e-07  0.9999999992371432  1.0000
  Br  Br1       1.0  0.23934297607676835  0.23934298601748732  0.7606570189201506  1.0000
  Br  Br2       1.0  0.7606569768323843  0.7606569352860502  0.2393430389942491  1.0000
  Br  Br3       1.0  0.7606570733985483  0.23934297641479776  0.23934292649971134  1.0000
  Br  Br4       1.0  0.23934303376307917  0.7606569779648997  0.7606569837372282  1.0000
  Br  Br5       1.0  0.2393429992023321  0.7606569952841675  0.23934298426395842  1.0000
  Br  Br6       1.0  0.760656996670589  0.23934301697880672  0.760657003988181  1.0000
