data_image0
_chemical_formula_structural       Cd2GeCl6
_chemical_formula_sum              "Cd2 Ge1 Cl6"
_cell_length_a       7.170321998423743
_cell_length_b       7.170322186089024
_cell_length_c       7.170321403945349
_cell_angle_alpha    60.000002911651656
_cell_angle_beta     59.99999985923378
_cell_angle_gamma    59.99999984064208

_space_group_name_H-M_alt    "P 1"
_space_group_IT_number       1

loop_
  _space_group_symop_operation_xyz
  'x, y, z'

loop_
  _atom_site_type_symbol
  _atom_site_label
  _atom_site_symmetry_multiplicity
  _atom_site_fract_x
  _atom_site_fract_y
  _atom_site_fract_z
  _atom_site_occupancy
  Cd  Cd1       1.0  0.250000051412071  0.2500006637148604  0.24999968281502816  1.0000
  Cd  Cd2       1.0  0.7500000071028473  0.7500002198707664  0.7499996617785568  1.0000
  Ge  Ge1       1.0  0.9999999748534206  0.9999999111800985  5.14046910031323e-08  1.0000
  Cl  Cl1       1.0  0.22693430450576232  0.22693416619817275  0.7730658820805558  1.0000
  Cl  Cl2       1.0  0.7730657647019945  0.7730654243746489  0.22693444675387425  1.0000
  Cl  Cl3       1.0  0.7730655752117621  0.22693421775200637  0.22693442863421742  1.0000
  Cl  Cl4       1.0  0.22693437853069445  0.7730656853985499  0.7730656161571924  1.0000
  Cl  Cl5       1.0  0.22693432705094163  0.7730654719602807  0.226934500183559  1.0000
  Cl  Cl6       1.0  0.7730656142020247  0.22693424159394643  0.7730657349075696  1.0000
