data_image0
_chemical_formula_structural       Cd2GeF6
_chemical_formula_sum              "Cd2 Ge1 F6"
_cell_length_a       5.293000170043265
_cell_length_b       5.293000062494202
_cell_length_c       5.2930002801579645
_cell_angle_alpha    60.00000025912412
_cell_angle_beta     60.00000012441879
_cell_angle_gamma    60.00000149090957

_space_group_name_H-M_alt    "P 1"
_space_group_IT_number       1

loop_
  _space_group_symop_operation_xyz
  'x, y, z'

loop_
  _atom_site_type_symbol
  _atom_site_label
  _atom_site_symmetry_multiplicity
  _atom_site_fract_x
  _atom_site_fract_y
  _atom_site_fract_z
  _atom_site_occupancy
  Cd  Cd1       1.0  0.24999999999419426  0.24999994747374127  0.2500000043961626  1.0000
  Cd  Cd2       1.0  0.7499999699661648  0.7500000437301262  0.74999998988874  1.0000
  Ge  Ge1       1.0  0.9999999707587731  0.9999999699193597  7.878241168431664e-08  1.0000
  F   F1        1.0  0.24952080749197236  0.24952074967983143  0.7504792184133751  1.0000
  F   F2        1.0  0.7504792738603563  0.7504792345823527  0.24952078410358916  1.0000
  F   F3        1.0  0.7504791698881887  0.24952082941704792  0.24952082607473658  1.0000
  F   F4        1.0  0.2495209030252658  0.7504791016255409  0.7504791789321471  1.0000
  F   F5        1.0  0.24952079025800794  0.7504792443701032  0.24952074534298394  1.0000
  F   F6        1.0  0.7504790994230935  0.2495208764119061  0.7504791865067246  1.0000
