data_image0
_chemical_formula_structural       Cd2HgI6
_chemical_formula_sum              "Cd2 Hg1 I6"
_cell_length_a       7.966572266350733
_cell_length_b       7.966572230836894
_cell_length_c       7.966572315212271
_cell_angle_alpha    59.99999955635003
_cell_angle_beta     59.99999951228106
_cell_angle_gamma    60.00000016751092

_space_group_name_H-M_alt    "P 1"
_space_group_IT_number       1

loop_
  _space_group_symop_operation_xyz
  'x, y, z'

loop_
  _atom_site_type_symbol
  _atom_site_label
  _atom_site_symmetry_multiplicity
  _atom_site_fract_x
  _atom_site_fract_y
  _atom_site_fract_z
  _atom_site_occupancy
  Cd  Cd1       1.0  0.24999999289820374  0.24999999504793188  0.2500000031025078  1.0000
  Cd  Cd2       1.0  0.750000001270065  0.7500000174282484  0.74999998438806  1.0000
  Hg  Hg1       1.0  3.411315802670802e-09  0.9999999984626451  0.9999999915315496  1.0000
  I   I1        1.0  0.2642829514501341  0.2642829275452198  0.735717057837571  1.0000
  I   I2        1.0  0.7357170467449099  0.735717051109153  0.26428295208198294  1.0000
  I   I3        1.0  0.7357170554896982  0.26428295351033476  0.2642829549695521  1.0000
  I   I4        1.0  0.26428294848798917  0.7357170512790712  0.7357170515436137  1.0000
  I   I5        1.0  0.2642829634892677  0.7357170451208513  0.2642829608678972  1.0000
  I   I6        1.0  0.7357170404884197  0.26428295966855464  0.7357170418795335  1.0000
