data_image0
_chemical_formula_structural       Cd2HgF6
_chemical_formula_sum              "Cd2 Hg1 F6"
_cell_length_a       5.768054597922547
_cell_length_b       5.768054751459301
_cell_length_c       5.768054485038598
_cell_angle_alpha    59.999999127695766
_cell_angle_beta     59.99999901942602
_cell_angle_gamma    59.999998914940676

_space_group_name_H-M_alt    "P 1"
_space_group_IT_number       1

loop_
  _space_group_symop_operation_xyz
  'x, y, z'

loop_
  _atom_site_type_symbol
  _atom_site_label
  _atom_site_symmetry_multiplicity
  _atom_site_fract_x
  _atom_site_fract_y
  _atom_site_fract_z
  _atom_site_occupancy
  Cd  Cd1       1.0  0.24999954427541934  0.250000476188099  0.2500000371986964  1.0000
  Cd  Cd2       1.0  0.7500000144392873  0.74999987216782  0.7500004000954947  1.0000
  Hg  Hg1       1.0  3.3608878174536434e-08  0.9999999171903624  1.6849638631333715e-07  1.0000
  F   F1        1.0  0.2647893748275749  0.2647894062272271  0.7352105814675236  1.0000
  F   F2        1.0  0.7352107957056417  0.735210421914329  0.2647892413753212  1.0000
  F   F3        1.0  0.7352109157457042  0.2647893191871651  0.26478894296322725  1.0000
  F   F4        1.0  0.264789233835237  0.735210697930223  0.7352107941341494  1.0000
  F   F5        1.0  0.2647894022455825  0.735210576190213  0.26478922796540305  1.0000
  F   F6        1.0  0.735210641440012  0.26478929017117525  0.7352106461260849  1.0000
