data_image0
_chemical_formula_structural       Cd2InBr6
_chemical_formula_sum              "Cd2 In1 Br6"
_cell_length_a       7.464529434732477
_cell_length_b       7.464529383016791
_cell_length_c       7.464529414443793
_cell_angle_alpha    59.99999989837471
_cell_angle_beta     60.00000011255087
_cell_angle_gamma    60.000000011438885

_space_group_name_H-M_alt    "P 1"
_space_group_IT_number       1

loop_
  _space_group_symop_operation_xyz
  'x, y, z'

loop_
  _atom_site_type_symbol
  _atom_site_label
  _atom_site_symmetry_multiplicity
  _atom_site_fract_x
  _atom_site_fract_y
  _atom_site_fract_z
  _atom_site_occupancy
  Cd  Cd1       1.0  0.24999997787311734  0.25000002072011746  0.24999999851012092  1.0000
  Cd  Cd2       1.0  0.7499999865121291  0.7500000195007754  0.7499999957724396  1.0000
  In  In1       1.0  1.4126022732336379e-08  0.9999999622626818  3.324035461120615e-08  1.0000
  Br  Br1       1.0  0.2539844323080533  0.25398438602505713  0.7460155823158265  1.0000
  Br  Br2       1.0  0.746015578782303  0.7460156115362586  0.2539844059249599  1.0000
  Br  Br3       1.0  0.7460155933890004  0.25398440651190807  0.25398439866438666  1.0000
  Br  Br4       1.0  0.25398441379519593  0.7460155795641367  0.7460155999514537  1.0000
  Br  Br5       1.0  0.2539844069104902  0.7460155859592582  0.25398441965146784  1.0000
  Br  Br6       1.0  0.7460155977106907  0.2539844263688341  0.7460155751578716  1.0000
