data_image0
_chemical_formula_structural       Cd2InCl6
_chemical_formula_sum              "Cd2 In1 Cl6"
_cell_length_a       7.089873825910566
_cell_length_b       7.089873798698042
_cell_length_c       7.089873603754679
_cell_angle_alpha    60.000001063057155
_cell_angle_beta     60.00000174486811
_cell_angle_gamma    60.00000102315771

_space_group_name_H-M_alt    "P 1"
_space_group_IT_number       1

loop_
  _space_group_symop_operation_xyz
  'x, y, z'

loop_
  _atom_site_type_symbol
  _atom_site_label
  _atom_site_symmetry_multiplicity
  _atom_site_fract_x
  _atom_site_fract_y
  _atom_site_fract_z
  _atom_site_occupancy
  Cd  Cd1       1.0  0.2500000350731757  0.24999995295323343  0.25000004966420475  1.0000
  Cd  Cd2       1.0  0.7500000371770186  0.7499998968637432  0.7500001118247389  1.0000
  In  In1       1.0  5.5210805603279984e-08  0.9999999516312181  3.3251010281137284e-08  1.0000
  Cl  Cl1       1.0  0.25068762767486064  0.2506876874693015  0.7493123816136281  1.0000
  Cl  Cl2       1.0  0.7493122783980908  0.7493124214661498  0.25068763185140747  1.0000
  Cl  Cl3       1.0  0.7493122954001354  0.2506877064713397  0.25068762312608306  1.0000
  Cl  Cl4       1.0  0.2506876982113195  0.7493122815421569  0.7493123209924735  1.0000
  Cl  Cl5       1.0  0.2506875975982769  0.7493123528348706  0.250687608671916  1.0000
  Cl  Cl6       1.0  0.7493123676823094  0.25068775437312457  0.7493122293649429  1.0000
