data_image0
_chemical_formula_structural       Cd2MnBr6
_chemical_formula_sum              "Cd2 Mn1 Br6"
_cell_length_a       7.398123324888268
_cell_length_b       7.398123578278241
_cell_length_c       7.398123503879817
_cell_angle_alpha    60.0000004122568
_cell_angle_beta     59.999999773002024
_cell_angle_gamma    59.99999963425958

_space_group_name_H-M_alt    "P 1"
_space_group_IT_number       1

loop_
  _space_group_symop_operation_xyz
  'x, y, z'

loop_
  _atom_site_type_symbol
  _atom_site_label
  _atom_site_symmetry_multiplicity
  _atom_site_fract_x
  _atom_site_fract_y
  _atom_site_fract_z
  _atom_site_occupancy
  Cd  Cd1       1.0  0.2500000584921764  0.24999993178271512  0.2499999936687259  1.0000
  Cd  Cd2       1.0  0.7499999911097542  0.7499999691735905  0.7500001565903004  1.0000
  Mn  Mn1       1.0  0.9999999850222404  2.1521245730451227e-08  0.9999998237114102  1.0000
  Br  Br1       1.0  0.22904858062328784  0.22904855707497945  0.7709514628456476  1.0000
  Br  Br2       1.0  0.7709513923559347  0.7709514332772692  0.22904857018784364  1.0000
  Br  Br3       1.0  0.7709513664254407  0.22904864170819753  0.22904863683576257  1.0000
  Br  Br4       1.0  0.2290485270907194  0.7709515870332311  0.7709513383617758  1.0000
  Br  Br5       1.0  0.22904865027026794  0.7709513907161386  0.22904858729831726  1.0000
  Br  Br6       1.0  0.7709514570975791  0.22904848209699946  0.7709514035180649  1.0000
