data_image0
_chemical_formula_structural       Cd2MnI6
_chemical_formula_sum              "Cd2 Mn1 I6"
_cell_length_a       7.822173391669329
_cell_length_b       7.8221733030610725
_cell_length_c       7.822173913140616
_cell_angle_alpha    59.99999786312244
_cell_angle_beta     59.99999723889837
_cell_angle_gamma    60.00000057617141

_space_group_name_H-M_alt    "P 1"
_space_group_IT_number       1

loop_
  _space_group_symop_operation_xyz
  'x, y, z'

loop_
  _atom_site_type_symbol
  _atom_site_label
  _atom_site_symmetry_multiplicity
  _atom_site_fract_x
  _atom_site_fract_y
  _atom_site_fract_z
  _atom_site_occupancy
  Cd  Cd1       1.0  0.24999996240793732  0.24999996499820581  0.25000006209082193  1.0000
  Cd  Cd2       1.0  0.7499999977869833  0.7500000061617897  0.7499999437303443  1.0000
  Mn  Mn1       1.0  3.7091360703327705e-10  1.0960143552058979e-07  0.9999999680253315  1.0000
  I   I1        1.0  0.24627298586285581  0.24627300610041195  0.7537269880661307  1.0000
  I   I2        1.0  0.7537269514140449  0.7537269540994399  0.24627308710921392  1.0000
  I   I3        1.0  0.7537270036788043  0.24627302217603864  0.24627311734385013  1.0000
  I   I4        1.0  0.24627306462072665  0.7537269568126337  0.753726843294842  1.0000
  I   I5        1.0  0.24627306122807682  0.7537269046598971  0.24627316649932732  1.0000
  I   I6        1.0  0.7537269764143069  0.24627308215744853  0.7537268272866908  1.0000
