data_image0
_chemical_formula_structural       Cd2MgBr6
_chemical_formula_sum              "Cd2 Mg1 Br6"
_cell_length_a       7.252453046022756
_cell_length_b       7.252452992013501
_cell_length_c       7.252452977828645
_cell_angle_alpha    59.9999997133262
_cell_angle_beta     60.000000247151
_cell_angle_gamma    60.000000495965566

_space_group_name_H-M_alt    "P 1"
_space_group_IT_number       1

loop_
  _space_group_symop_operation_xyz
  'x, y, z'

loop_
  _atom_site_type_symbol
  _atom_site_label
  _atom_site_symmetry_multiplicity
  _atom_site_fract_x
  _atom_site_fract_y
  _atom_site_fract_z
  _atom_site_occupancy
  Cd  Cd1       1.0  0.2500000106439511  0.2500000516433573  0.24999997373682253  1.0000
  Cd  Cd2       1.0  0.750000027704581  0.7500000147653237  0.7500000526967626  1.0000
  Mg  Mg1       1.0  0.9999999913163115  0.9999999544042388  0.9999999692282844  1.0000
  Br  Br1       1.0  0.2540254591651327  0.25402543613319184  0.7459745201395958  1.0000
  Br  Br2       1.0  0.7459745678783178  0.7459745829909963  0.25402538943133135  1.0000
  Br  Br3       1.0  0.7459744984641429  0.2540254731619831  0.2540254645018923  1.0000
  Br  Br4       1.0  0.25402540466464657  0.745974559472059  0.7459745802443805  1.0000
  Br  Br5       1.0  0.2540255091932021  0.7459745190945454  0.2540254419964819  1.0000
  Br  Br6       1.0  0.7459745333551463  0.25402541052685185  0.7459746052289913  1.0000
