data_image0
_chemical_formula_structural       Cd2MgCl6
_chemical_formula_sum              "Cd2 Mg1 Cl6"
_cell_length_a       6.7210470900527515
_cell_length_b       6.721047208027746
_cell_length_c       6.72104715235486
_cell_angle_alpha    60.00000010082338
_cell_angle_beta     59.99999965873644
_cell_angle_gamma    59.99999979058958

_space_group_name_H-M_alt    "P 1"
_space_group_IT_number       1

loop_
  _space_group_symop_operation_xyz
  'x, y, z'

loop_
  _atom_site_type_symbol
  _atom_site_label
  _atom_site_symmetry_multiplicity
  _atom_site_fract_x
  _atom_site_fract_y
  _atom_site_fract_z
  _atom_site_occupancy
  Cd  Cd1       1.0  0.250000002505069  0.24999997964315288  0.25000000315054616  1.0000
  Cd  Cd2       1.0  0.7500000367039499  0.7499999699077601  0.7500000269797449  1.0000
  Mg  Mg1       1.0  0.9999999982640827  3.097830162691182e-08  0.999999997281715  1.0000
  Cl  Cl1       1.0  0.2516717937799662  0.2516717847221238  0.7483282040518692  1.0000
  Cl  Cl2       1.0  0.7483282101303715  0.7483282140296215  0.25167178044289795  1.0000
  Cl  Cl3       1.0  0.7483282158302201  0.2516717805777045  0.25167178179535976  1.0000
  Cl  Cl4       1.0  0.2516717702923331  0.748328219996294  0.7483282032428563  1.0000
  Cl  Cl5       1.0  0.2516717769301763  0.7483282263731594  0.25167179568191844  1.0000
  Cl  Cl6       1.0  0.7483281973566726  0.2516717942456224  0.7483282060818455  1.0000
