data_image0
_chemical_formula_structural       Cd2NbI6
_chemical_formula_sum              "Cd2 Nb1 I6"
_cell_length_a       8.281835586990741
_cell_length_b       8.281835587384746
_cell_length_c       8.281835658125852
_cell_angle_alpha    59.999999654897444
_cell_angle_beta     59.99999996766397
_cell_angle_gamma    59.999999669961355

_space_group_name_H-M_alt    "P 1"
_space_group_IT_number       1

loop_
  _space_group_symop_operation_xyz
  'x, y, z'

loop_
  _atom_site_type_symbol
  _atom_site_label
  _atom_site_symmetry_multiplicity
  _atom_site_fract_x
  _atom_site_fract_y
  _atom_site_fract_z
  _atom_site_occupancy
  Cd  Cd1       1.0  0.24999999554080923  0.2500000737554342  0.24999996823751358  1.0000
  Cd  Cd2       1.0  0.7499999912040356  0.7499999565552604  0.7500000263250256  1.0000
  Nb  Nb1       1.0  7.178619255549928e-08  0.9999998181035855  1.2793949010174693e-08  1.0000
  I   I1        1.0  0.23842943658074398  0.238429446815435  0.7615705624916068  1.0000
  I   I2        1.0  0.7615706825048969  0.7615706382120669  0.23842933129735994  1.0000
  I   I3        1.0  0.7615705541142092  0.23842943747009876  0.23842943380760775  1.0000
  I   I4        1.0  0.23842933214506115  0.7615706224172486  0.7615706650347132  1.0000
  I   I5        1.0  0.23842936228677963  0.7615705907516038  0.23842939750200418  1.0000
  I   I6        1.0  0.7615705808422478  0.2384294114612707  0.7615705991084237  1.0000
