data_image0
_chemical_formula_structural       Cd2NbF6
_chemical_formula_sum              "Cd2 Nb1 F6"
_cell_length_a       7.5263675700870065
_cell_length_b       7.52636318512607
_cell_length_c       7.526364013857429
_cell_angle_alpha    59.99999198826392
_cell_angle_beta     60.000001934272966
_cell_angle_gamma    59.9999959468904

_space_group_name_H-M_alt    "P 1"
_space_group_IT_number       1

loop_
  _space_group_symop_operation_xyz
  'x, y, z'

loop_
  _atom_site_type_symbol
  _atom_site_label
  _atom_site_symmetry_multiplicity
  _atom_site_fract_x
  _atom_site_fract_y
  _atom_site_fract_z
  _atom_site_occupancy
  Cd  Cd1       1.0  0.24999986838619734  0.25000024697327805  0.25000064999004895  1.0000
  Cd  Cd2       1.0  0.7499999221395793  0.7499995920648691  0.7499999251535492  1.0000
  Nb  Nb1       1.0  0.9999999383525023  1.4645454180805809e-08  2.0552783331468882e-07  1.0000
  F   F1        1.0  0.1816534938745216  0.18165298599893356  0.8183463215357459  1.0000
  F   F2        1.0  0.8183467763025546  0.8183467212301188  0.1816527496952263  1.0000
  F   F3        1.0  0.8183462996838703  0.18165323117612758  0.18165354656603178  1.0000
  F   F4        1.0  0.18165317735545933  0.8183473319986311  0.818346238640854  1.0000
  F   F5        1.0  0.18165373844312957  0.8183468098563296  0.18165301363394207  1.0000
  F   F6        1.0  0.8183469895997751  0.1816534522729896  0.8183467430244622  1.0000
