data_image0
_chemical_formula_structural       Cd2NiBr6
_chemical_formula_sum              "Cd2 Ni1 Br6"
_cell_length_a       7.0875618144334895
_cell_length_b       7.087561524770978
_cell_length_c       7.087561658552326
_cell_angle_alpha    60.00000084495706
_cell_angle_beta     60.00000040815146
_cell_angle_gamma    59.99999954048047

_space_group_name_H-M_alt    "P 1"
_space_group_IT_number       1

loop_
  _space_group_symop_operation_xyz
  'x, y, z'

loop_
  _atom_site_type_symbol
  _atom_site_label
  _atom_site_symmetry_multiplicity
  _atom_site_fract_x
  _atom_site_fract_y
  _atom_site_fract_z
  _atom_site_occupancy
  Cd  Cd1       1.0  0.25000000751056056  0.25000001986300635  0.24999998153344136  1.0000
  Cd  Cd2       1.0  0.7500000032129347  0.7499999904682155  0.7499999817654861  1.0000
  Ni  Ni1       1.0  0.9999999708072681  0.9999999360632571  5.926303898709471e-08  1.0000
  Br  Br1       1.0  0.2439429258835309  0.24394290195820592  0.7560571011017573  1.0000
  Br  Br2       1.0  0.7560571622336486  0.75605717922184  0.2439428247599009  1.0000
  Br  Br3       1.0  0.7560570996660426  0.2439428474084725  0.24394289007119294  1.0000
  Br  Br4       1.0  0.2439428697855365  0.7560571058980871  0.7560571505944729  1.0000
  Br  Br5       1.0  0.24394287033534282  0.7560571434062913  0.2439428523732394  1.0000
  Br  Br6       1.0  0.7560570903603521  0.24394287038097115  0.756057151142638  1.0000
