data_image0
_chemical_formula_structural       Cd2NiI6
_chemical_formula_sum              "Cd2 Ni1 I6"
_cell_length_a       7.629474332482783
_cell_length_b       7.62947442580157
_cell_length_c       7.629474323004403
_cell_angle_alpha    59.99999978747205
_cell_angle_beta     60.00000044102301
_cell_angle_gamma    59.999999016953

_space_group_name_H-M_alt    "P 1"
_space_group_IT_number       1

loop_
  _space_group_symop_operation_xyz
  'x, y, z'

loop_
  _atom_site_type_symbol
  _atom_site_label
  _atom_site_symmetry_multiplicity
  _atom_site_fract_x
  _atom_site_fract_y
  _atom_site_fract_z
  _atom_site_occupancy
  Cd  Cd1       1.0  0.24999994244684787  0.25000002487960876  0.2500000143411331  1.0000
  Cd  Cd2       1.0  0.7500000097678509  0.7500000585860163  0.7499999323113192  1.0000
  Ni  Ni1       1.0  1.3621259524639012e-08  0.9999999999999996  2.071420262384122e-08  1.0000
  I   I1        1.0  0.2496888295211379  0.24968879979320413  0.7503111988793795  1.0000
  I   I2        1.0  0.7503111873926335  0.7503111713027636  0.2496888371436807  1.0000
  I   I3        1.0  0.7503112154872957  0.24968875055025452  0.2496888167166428  1.0000
  I   I4        1.0  0.24968881702024598  0.7503111964665012  0.7503111960243061  1.0000
  I   I5        1.0  0.24968877406327836  0.7503112057744953  0.24968880057020618  1.0000
  I   I6        1.0  0.750311213986941  0.24968879742708924  0.7503111787821568  1.0000
