data_image0
_chemical_formula_structural       Cd2NbBr6
_chemical_formula_sum              "Cd2 Nb1 Br6"
_cell_length_a       7.7972813113330774
_cell_length_b       7.797281314922445
_cell_length_c       7.797281236730096
_cell_angle_alpha    59.99999989665722
_cell_angle_beta     59.99999863876716
_cell_angle_gamma    60.00000047372513

_space_group_name_H-M_alt    "P 1"
_space_group_IT_number       1

loop_
  _space_group_symop_operation_xyz
  'x, y, z'

loop_
  _atom_site_type_symbol
  _atom_site_label
  _atom_site_symmetry_multiplicity
  _atom_site_fract_x
  _atom_site_fract_y
  _atom_site_fract_z
  _atom_site_occupancy
  Cd  Cd1       1.0  0.2500000029868553  0.2499999841262773  0.2500000244637073  1.0000
  Cd  Cd2       1.0  0.7499999910690925  0.7500000104959603  0.7500000019783621  1.0000
  Nb  Nb1       1.0  0.9999999766032504  8.796105955698686e-08  1.5239760154439905e-07  1.0000
  Br  Br1       1.0  0.23256686235099908  0.23256688177479898  0.7674331515754141  1.0000
  Br  Br2       1.0  0.7674331157307644  0.767433018603446  0.2325669351057376  1.0000
  Br  Br3       1.0  0.7674331829196402  0.23256688277200047  0.23256682536338036  1.0000
  Br  Br4       1.0  0.2325669517783569  0.7674330364550442  0.7674330337929369  1.0000
  Br  Br5       1.0  0.23256689891748553  0.7674331110973276  0.23256686591993406  1.0000
  Br  Br6       1.0  0.7674330320114606  0.2325669840518345  0.7674330097248486  1.0000
