data_image0
_chemical_formula_structural       Cd2NbCl6
_chemical_formula_sum              "Cd2 Nb1 Cl6"
_cell_length_a       7.704657573054307
_cell_length_b       7.70465828501799
_cell_length_c       7.704656963302385
_cell_angle_alpha    60.00000218967711
_cell_angle_beta     60.00000417197438
_cell_angle_gamma    60.000011761330434

_space_group_name_H-M_alt    "P 1"
_space_group_IT_number       1

loop_
  _space_group_symop_operation_xyz
  'x, y, z'

loop_
  _atom_site_type_symbol
  _atom_site_label
  _atom_site_symmetry_multiplicity
  _atom_site_fract_x
  _atom_site_fract_y
  _atom_site_fract_z
  _atom_site_occupancy
  Cd  Cd1       1.0  0.24999996808614283  0.24999995579850384  0.24999990570117264  1.0000
  Cd  Cd2       1.0  0.7499998561751434  0.7500000835832594  0.7500000951094895  1.0000
  Nb  Nb1       1.0  0.9999999933246786  0.9999999570803664  5.854330287764354e-08  1.0000
  Cl  Cl1       1.0  0.21984867361211147  0.21984859660386669  0.7801513391903615  1.0000
  Cl  Cl2       1.0  0.7801512766780436  0.7801513569386446  0.219848666185906  1.0000
  Cl  Cl3       1.0  0.7801514427831109  0.21984858028322551  0.2198486556296986  1.0000
  Cl  Cl4       1.0  0.2198486267514286  0.7801514336647025  0.7801512988591577  1.0000
  Cl  Cl5       1.0  0.2198486334656379  0.7801514861146441  0.21984859512016855  1.0000
  Cl  Cl6       1.0  0.780151496804092  0.2198485389605984  0.7801513948228335  1.0000
