data_image0
_chemical_formula_structural       Cd2PdF6
_chemical_formula_sum              "Cd2 Pd1 F6"
_cell_length_a       5.563073447212505
_cell_length_b       5.563073166982248
_cell_length_c       5.563073299635179
_cell_angle_alpha    59.99999898581696
_cell_angle_beta     59.99999737197018
_cell_angle_gamma    59.999999449235595

_space_group_name_H-M_alt    "P 1"
_space_group_IT_number       1

loop_
  _space_group_symop_operation_xyz
  'x, y, z'

loop_
  _atom_site_type_symbol
  _atom_site_label
  _atom_site_symmetry_multiplicity
  _atom_site_fract_x
  _atom_site_fract_y
  _atom_site_fract_z
  _atom_site_occupancy
  Cd  Cd1       1.0  0.24999994428601208  0.25000002778152997  0.2500000824476824  1.0000
  Cd  Cd2       1.0  0.7500000396283071  0.7499999798711909  0.7500000321159593  1.0000
  Pd  Pd1       1.0  0.9999999890353977  0.9999999581703274  1.20165975005099e-08  1.0000
  F   F1        1.0  0.2575264400224881  0.25752649681461504  0.742473502814822  1.0000
  F   F2        1.0  0.7424735215632998  0.7424734844193637  0.257526503102459  1.0000
  F   F3        1.0  0.7424735505456224  0.2575264481328518  0.25752643454885876  1.0000
  F   F4        1.0  0.25752647156860314  0.74247358814017  0.7424734902163022  1.0000
  F   F5        1.0  0.25752655701736205  0.7424735014975234  0.2575265119235498  1.0000
  F   F6        1.0  0.7424735272837241  0.2575264665270868  0.7424734446334657  1.0000
