data_image0
_chemical_formula_structural       Cd2PdBr6
_chemical_formula_sum              "Cd2 Pd1 Br6"
_cell_length_a       7.211485040073874
_cell_length_b       7.211485076105614
_cell_length_c       7.211485098645464
_cell_angle_alpha    60.000000068865695
_cell_angle_beta     60.000000199216515
_cell_angle_gamma    60.000000632799846

_space_group_name_H-M_alt    "P 1"
_space_group_IT_number       1

loop_
  _space_group_symop_operation_xyz
  'x, y, z'

loop_
  _atom_site_type_symbol
  _atom_site_label
  _atom_site_symmetry_multiplicity
  _atom_site_fract_x
  _atom_site_fract_y
  _atom_site_fract_z
  _atom_site_occupancy
  Cd  Cd1       1.0  0.24999999658873176  0.24999999273113427  0.25000001773687613  1.0000
  Cd  Cd2       1.0  0.7499999917392421  0.7499999866850303  0.749999957844291  1.0000
  Pd  Pd1       1.0  3.31728137116554e-08  0.9999999677318165  5.224140820077409e-08  1.0000
  Br  Br1       1.0  0.24642787117782927  0.2464278675100274  0.7535721209426834  1.0000
  Br  Br2       1.0  0.7535721314471211  0.7535721458726461  0.24642788736049512  1.0000
  Br  Br3       1.0  0.7535721005301771  0.24642787703057095  0.24642790060692168  1.0000
  Br  Br4       1.0  0.24642790125394262  0.7535721244638245  0.7535720960340112  1.0000
  Br  Br5       1.0  0.24642786234130304  0.7535721379567468  0.24642785898497532  1.0000
  Br  Br6       1.0  0.753572113143769  0.24642789920248298  0.7535721066262026  1.0000
