data_image0
_chemical_formula_structural       Cd2PtCl6
_chemical_formula_sum              "Cd2 Pt1 Cl6"
_cell_length_a       7.0400806573782955
_cell_length_b       7.040080102929845
_cell_length_c       7.040080556503776
_cell_angle_alpha    59.999996597872354
_cell_angle_beta     60.00000040264548
_cell_angle_gamma    59.99999363829157

_space_group_name_H-M_alt    "P 1"
_space_group_IT_number       1

loop_
  _space_group_symop_operation_xyz
  'x, y, z'

loop_
  _atom_site_type_symbol
  _atom_site_label
  _atom_site_symmetry_multiplicity
  _atom_site_fract_x
  _atom_site_fract_y
  _atom_site_fract_z
  _atom_site_occupancy
  Cd  Cd1       1.0  0.25000005919225826  0.2500001007433146  0.24999992058542828  1.0000
  Cd  Cd2       1.0  0.7499999871880424  0.7500000221423192  0.7500000012557813  1.0000
  Pt  Pt1       1.0  1.559537636560327e-07  0.9999997634042306  1.6173554082929277e-08  1.0000
  Cl  Cl1       1.0  0.2363767855620243  0.23637693622749092  0.7636231428858341  1.0000
  Cl  Cl2       1.0  0.7636230256613203  0.7636230753189692  0.2363769522034415  1.0000
  Cl  Cl3       1.0  0.7636233679528435  0.23637667592795872  0.23637664016028456  1.0000
  Cl  Cl4       1.0  0.2363766448961789  0.7636233704119877  0.7636233764916808  1.0000
  Cl  Cl5       1.0  0.23637662976859986  0.7636233726469229  0.23637662912480847  1.0000
  Cl  Cl6       1.0  0.7636233463170579  0.23637668065172474  0.7636233299871357  1.0000
