data_image0
_chemical_formula_structural       Cd2PtBr6
_chemical_formula_sum              "Cd2 Pt1 Br6"
_cell_length_a       7.255058549109418
_cell_length_b       7.2550584716411555
_cell_length_c       7.255058399429296
_cell_angle_alpha    60.000000407003796
_cell_angle_beta     60.00000172205344
_cell_angle_gamma    60.00000021780326

_space_group_name_H-M_alt    "P 1"
_space_group_IT_number       1

loop_
  _space_group_symop_operation_xyz
  'x, y, z'

loop_
  _atom_site_type_symbol
  _atom_site_label
  _atom_site_symmetry_multiplicity
  _atom_site_fract_x
  _atom_site_fract_y
  _atom_site_fract_z
  _atom_site_occupancy
  Cd  Cd1       1.0  0.24999996572122576  0.24999997959469686  0.25000004741096227  1.0000
  Cd  Cd2       1.0  0.7500000341029618  0.7499999911159788  0.7499999883283089  1.0000
  Pt  Pt1       1.0  0.9999999039893506  8.27181460203239e-08  6.315854595429394e-08  1.0000
  Br  Br1       1.0  0.24315249568650468  0.24315240282112485  0.7568475459863426  1.0000
  Br  Br2       1.0  0.7568475426086713  0.7568475813945544  0.24315242517117056  1.0000
  Br  Br3       1.0  0.756847598418379  0.2431523844747198  0.24315238133121864  1.0000
  Br  Br4       1.0  0.24315242855921124  0.7568475811715798  0.7568475868512446  1.0000
  Br  Br5       1.0  0.24315238378253332  0.7568476181873983  0.243152372193782  1.0000
  Br  Br6       1.0  0.7568476464581974  0.2431523710926574  0.7568475908103248  1.0000
