data_image0
_chemical_formula_structural       Cd2PbF6
_chemical_formula_sum              "Cd2 Pb1 F6"
_cell_length_a       6.084494330613233
_cell_length_b       6.084493819917024
_cell_length_c       6.084494443179101
_cell_angle_alpha    60.00000161320449
_cell_angle_beta     60.00000090695058
_cell_angle_gamma    60.0000013691954

_space_group_name_H-M_alt    "P 1"
_space_group_IT_number       1

loop_
  _space_group_symop_operation_xyz
  'x, y, z'

loop_
  _atom_site_type_symbol
  _atom_site_label
  _atom_site_symmetry_multiplicity
  _atom_site_fract_x
  _atom_site_fract_y
  _atom_site_fract_z
  _atom_site_occupancy
  Cd  Cd1       1.0  0.24999987372596222  0.25000005335289277  0.2500001405565067  1.0000
  Cd  Cd2       1.0  0.7500000287623172  0.7499999507175589  0.7499998393524162  1.0000
  Pb  Pb1       1.0  0.9999999809268757  0.9999999718194656  7.19160882514177e-09  1.0000
  F   F1        1.0  0.24708408317566388  0.24708429738457907  0.7529157769985593  1.0000
  F   F2        1.0  0.7529159181515719  0.7529156322087618  0.24708439616967948  1.0000
  F   F3        1.0  0.7529158661151731  0.24708413579689073  0.24708417043517286  1.0000
  F   F4        1.0  0.2470843413986439  0.7529157958093423  0.7529157589339684  1.0000
  F   F5        1.0  0.24708413746022237  0.7529158606119787  0.24708421360898705  1.0000
  F   F6        1.0  0.7529158157680182  0.24708423605165733  0.7529157554436783  1.0000
