data_image0
_chemical_formula_structural       Cd2PtF6
_chemical_formula_sum              "Cd2 Pt1 F6"
_cell_length_a       6.005689932912362
_cell_length_b       6.00569243379211
_cell_length_c       6.005688387273519
_cell_angle_alpha    60.00000955645821
_cell_angle_beta     60.00001263167423
_cell_angle_gamma    60.00002013340929

_space_group_name_H-M_alt    "P 1"
_space_group_IT_number       1

loop_
  _space_group_symop_operation_xyz
  'x, y, z'

loop_
  _atom_site_type_symbol
  _atom_site_label
  _atom_site_symmetry_multiplicity
  _atom_site_fract_x
  _atom_site_fract_y
  _atom_site_fract_z
  _atom_site_occupancy
  Cd  Cd1       1.0  0.25000079195471075  0.250001379636823  0.24999906050247503  1.0000
  Cd  Cd2       1.0  0.7499989242963577  0.7500002581101458  0.7500015436985471  1.0000
  Pt  Pt1       1.0  0.9999998191917153  0.9999999367814854  1.536500731652728e-07  1.0000
  F   F1        1.0  0.23602522770569734  0.23602570393821706  0.7639747690302087  1.0000
  F   F2        1.0  0.7639746939591382  0.7639737313580919  0.23602576303785855  1.0000
  F   F3        1.0  0.7639735420658035  0.23602719134664774  0.23602404404589264  1.0000
  F   F4        1.0  0.23602556411015657  0.7639735022017956  0.7639751277201684  1.0000
  F   F5        1.0  0.2360271507542992  0.763973123695919  0.23602447437467614  1.0000
  F   F6        1.0  0.763973939555096  0.23602592617178736  0.7639743456706578  1.0000
