data_image0
_chemical_formula_structural       Cd2PtI6
_chemical_formula_sum              "Cd2 Pt1 I6"
_cell_length_a       7.738995389687402
_cell_length_b       7.7389955318189605
_cell_length_c       7.738995336923629
_cell_angle_alpha    60.00000060449309
_cell_angle_beta     60.00000011405484
_cell_angle_gamma    59.99999834053765

_space_group_name_H-M_alt    "P 1"
_space_group_IT_number       1

loop_
  _space_group_symop_operation_xyz
  'x, y, z'

loop_
  _atom_site_type_symbol
  _atom_site_label
  _atom_site_symmetry_multiplicity
  _atom_site_fract_x
  _atom_site_fract_y
  _atom_site_fract_z
  _atom_site_occupancy
  Cd  Cd1       1.0  0.2499999967206563  0.2500000005949522  0.2500000474161341  1.0000
  Cd  Cd2       1.0  0.7500000521507926  0.7499999590556516  0.7499999827283359  1.0000
  Pt  Pt1       1.0  0.9999999343806459  0.9999999461928568  0.9999999020700474  1.0000
  I   I1        1.0  0.24785716823161888  0.24785719805896794  0.7521428114466141  1.0000
  I   I2        1.0  0.7521428849633692  0.7521428739536155  0.24785711771390254  1.0000
  I   I3        1.0  0.7521428536504395  0.24785716972074234  0.24785710668851973  1.0000
  I   I4        1.0  0.24785706604313076  0.7521429133697862  0.7521429482916027  1.0000
  I   I5        1.0  0.2478571201709148  0.7521428511615089  0.24785714001459203  1.0000
  I   I6        1.0  0.7521429252949409  0.2478570784203962  0.7521429469239033  1.0000
