data_image0
_chemical_formula_structural       Cd2SBr6
_chemical_formula_sum              "Cd2 S1 Br6"
_cell_length_a       7.3307219894412325
_cell_length_b       7.330721968528005
_cell_length_c       7.330722078830281
_cell_angle_alpha    60.000000195742615
_cell_angle_beta     59.999999882115475
_cell_angle_gamma    60.00000016100515

_space_group_name_H-M_alt    "P 1"
_space_group_IT_number       1

loop_
  _space_group_symop_operation_xyz
  'x, y, z'

loop_
  _atom_site_type_symbol
  _atom_site_label
  _atom_site_symmetry_multiplicity
  _atom_site_fract_x
  _atom_site_fract_y
  _atom_site_fract_z
  _atom_site_occupancy
  Cd  Cd1       1.0  0.2500000093115489  0.2500000272325967  0.2499999536466475  1.0000
  Cd  Cd2       1.0  0.7499999917717126  0.749999968090084  0.7500000204008321  1.0000
  S   S1        1.0  9.64201329739099e-09  0.9999999899757906  1.555220110607632e-09  1.0000
  Br  Br1       1.0  0.24887451628362142  0.2488745057075258  0.75112549236941  1.0000
  Br  Br2       1.0  0.7511254701619159  0.7511254862737521  0.2488745206783194  1.0000
  Br  Br3       1.0  0.7511254658474997  0.24887453147542826  0.2488745545418595  1.0000
  Br  Br4       1.0  0.24887454478222645  0.7511254588351479  0.751125458162103  1.0000
  Br  Br5       1.0  0.24887453944443988  0.7511254988667762  0.24887452195515486  1.0000
  Br  Br6       1.0  0.7511254499439111  0.24887453154063754  0.7511254813210768  1.0000
