data_image0
_chemical_formula_structural       Cd2SrI6
_chemical_formula_sum              "Cd2 Sr1 I6"
_cell_length_a       8.571454490225552
_cell_length_b       8.571454162599546
_cell_length_c       8.571454742474781
_cell_angle_alpha    59.99999994555648
_cell_angle_beta     59.99999669535174
_cell_angle_gamma    60.000002390984264

_space_group_name_H-M_alt    "P 1"
_space_group_IT_number       1

loop_
  _space_group_symop_operation_xyz
  'x, y, z'

loop_
  _atom_site_type_symbol
  _atom_site_label
  _atom_site_symmetry_multiplicity
  _atom_site_fract_x
  _atom_site_fract_y
  _atom_site_fract_z
  _atom_site_occupancy
  Cd  Cd1       1.0  0.2500000338096477  0.2500000375618566  0.24999994055760047  1.0000
  Cd  Cd2       1.0  0.7499999883527445  0.7499999669413665  0.7500000724159649  1.0000
  Sr  Sr1       1.0  2.5500048116482415e-08  2.8577294993627543e-08  0.9999999519613926  1.0000
  I   I1        1.0  0.2663461782199116  0.26634614610024093  0.7336538524205529  1.0000
  I   I2        1.0  0.7336538623542855  0.7336538112504452  0.26634612475686387  1.0000
  I   I3        1.0  0.7336538406166921  0.26634628450484527  0.2663461183662702  1.0000
  I   I4        1.0  0.2663460994514748  0.733653715711782  0.7336539856308945  1.0000
  I   I5        1.0  0.26634622584682044  0.7336539029272264  0.26634611381754375  1.0000
  I   I6        1.0  0.7336537391774123  0.26634610729145025  0.7336538373676428  1.0000
