data_image0
_chemical_formula_structural       Cd2SnI6
_chemical_formula_sum              "Cd2 Sn1 I6"
_cell_length_a       8.093556189593468
_cell_length_b       8.093556136299275
_cell_length_c       8.093556152555204
_cell_angle_alpha    59.999999895997256
_cell_angle_beta     60.00000000297047
_cell_angle_gamma    59.999999803114065

_space_group_name_H-M_alt    "P 1"
_space_group_IT_number       1

loop_
  _space_group_symop_operation_xyz
  'x, y, z'

loop_
  _atom_site_type_symbol
  _atom_site_label
  _atom_site_symmetry_multiplicity
  _atom_site_fract_x
  _atom_site_fract_y
  _atom_site_fract_z
  _atom_site_occupancy
  Cd  Cd1       1.0  0.2500000212075634  0.2500000098505222  0.2499999611040401  1.0000
  Cd  Cd2       1.0  0.7499999751826844  0.7500000038265793  0.7500000071143617  1.0000
  Sn  Sn1       1.0  0.999999967460581  0.9999999606559018  7.424383428415868e-08  1.0000
  I   I1        1.0  0.25776974004958186  0.2577697323599535  0.7422302557039261  1.0000
  I   I2        1.0  0.742230281674934  0.7422302994759625  0.25776969076793427  1.0000
  I   I3        1.0  0.7422302819561434  0.2577697200210918  0.25776971692872164  1.0000
  I   I4        1.0  0.2577697393802016  0.7422302573383806  0.7422302903353183  1.0000
  I   I5        1.0  0.2577697197918108  0.7422303011567806  0.2577697103199964  1.0000
  I   I6        1.0  0.7422302727362315  0.25776971554678985  0.7422302941472473  1.0000
