data_image0
_chemical_formula_structural       Cd2SnBr6
_chemical_formula_sum              "Cd2 Sn1 Br6"
_cell_length_a       7.5167332466550505
_cell_length_b       7.516733087261315
_cell_length_c       7.516733408473605
_cell_angle_alpha    59.999998142009055
_cell_angle_beta     59.999998614996784
_cell_angle_gamma    59.99999958231614

_space_group_name_H-M_alt    "P 1"
_space_group_IT_number       1

loop_
  _space_group_symop_operation_xyz
  'x, y, z'

loop_
  _atom_site_type_symbol
  _atom_site_label
  _atom_site_symmetry_multiplicity
  _atom_site_fract_x
  _atom_site_fract_y
  _atom_site_fract_z
  _atom_site_occupancy
  Cd  Cd1       1.0  0.2499999813916907  0.2500000117883712  0.25000000871757655  1.0000
  Cd  Cd2       1.0  0.7500000089898953  0.7499999930018073  0.7500000229091619  1.0000
  Sn  Sn1       1.0  4.733680241766398e-09  0.9999999397137552  5.3053219850876894e-08  1.0000
  Br  Br1       1.0  0.24887144451361726  0.2488714699483211  0.7511285275670412  1.0000
  Br  Br2       1.0  0.7511285361690182  0.7511285869813125  0.248871420312284  1.0000
  Br  Br3       1.0  0.7511285305538155  0.24887148005616827  0.24887147238507568  1.0000
  Br  Br4       1.0  0.248871475282689  0.7511285198459369  0.7511285220294772  1.0000
  Br  Br5       1.0  0.2488714896599135  0.7511285145817226  0.2488714657935719  1.0000
  Br  Br6       1.0  0.7511285356037256  0.2488714869497406  0.7511285007979878  1.0000
