data_image0
_chemical_formula_structural       Cd2SrBr6
_chemical_formula_sum              "Cd2 Sr1 Br6"
_cell_length_a       7.742743155063958
_cell_length_b       7.742743142183856
_cell_length_c       7.742743236429454
_cell_angle_alpha    59.99999966602709
_cell_angle_beta     59.999999081658
_cell_angle_gamma    60.00000038975294

_space_group_name_H-M_alt    "P 1"
_space_group_IT_number       1

loop_
  _space_group_symop_operation_xyz
  'x, y, z'

loop_
  _atom_site_type_symbol
  _atom_site_label
  _atom_site_symmetry_multiplicity
  _atom_site_fract_x
  _atom_site_fract_y
  _atom_site_fract_z
  _atom_site_occupancy
  Cd  Cd1       1.0  0.24999994956522573  0.25000003114877556  0.24999999600970857  1.0000
  Cd  Cd2       1.0  0.7499999735618582  0.7500000365016318  0.7499999527768503  1.0000
  Sr  Sr1       1.0  1.571198508329653e-08  0.9999999841820291  2.588363112283868e-08  1.0000
  Br  Br1       1.0  0.26840636597887535  0.2684062921372159  0.7315936833000384  1.0000
  Br  Br2       1.0  0.7315936019502708  0.7315936679509889  0.26840637952463303  1.0000
  Br  Br3       1.0  0.7315937117588048  0.2684063222194785  0.26840635720826794  1.0000
  Br  Br4       1.0  0.2684063915352733  0.7315936299597418  0.7315936418884292  1.0000
  Br  Br5       1.0  0.26840634789363976  0.731593630182013  0.26840637189943445  1.0000
  Br  Br6       1.0  0.7315936374481341  0.26840640741425  0.7315935905120854  1.0000
