data_image0
_chemical_formula_structural       Cd2ScCl6
_chemical_formula_sum              "Cd2 Sc1 Cl6"
_cell_length_a       7.105735462838149
_cell_length_b       7.105735610509238
_cell_length_c       7.105736105375246
_cell_angle_alpha    60.00000070219556
_cell_angle_beta     59.99999745300084
_cell_angle_gamma    59.999998422274444

_space_group_name_H-M_alt    "P 1"
_space_group_IT_number       1

loop_
  _space_group_symop_operation_xyz
  'x, y, z'

loop_
  _atom_site_type_symbol
  _atom_site_label
  _atom_site_symmetry_multiplicity
  _atom_site_fract_x
  _atom_site_fract_y
  _atom_site_fract_z
  _atom_site_occupancy
  Cd  Cd1       1.0  0.2500000624702683  0.24999985970210353  0.2500000563128324  1.0000
  Cd  Cd2       1.0  0.7499998138123154  0.7499999686400062  0.7500001863025488  1.0000
  Sc  Sc1       1.0  0.999999931371518  0.9999999913819999  4.988175052342721e-08  1.0000
  Cl  Cl1       1.0  0.24574641484005139  0.24574634738349033  0.7542536498712414  1.0000
  Cl  Cl2       1.0  0.7542537679781218  0.7542536826198579  0.24574634146035904  1.0000
  Cl  Cl3       1.0  0.7542536424746497  0.24574655773185589  0.24574619684337431  1.0000
  Cl  Cl4       1.0  0.2457463865376749  0.7542536411843248  0.7542535237670693  1.0000
  Cl  Cl5       1.0  0.24574634302140375  0.7542536040266175  0.24574643881598937  1.0000
  Cl  Cl6       1.0  0.7542536338465753  0.24574634669111295  0.7542535558094549  1.0000
