data_image0
_chemical_formula_structural       Cd2SrF6
_chemical_formula_sum              "Cd2 Sr1 F6"
_cell_length_a       5.840618734475739
_cell_length_b       5.840619051325619
_cell_length_c       5.840618509208907
_cell_angle_alpha    60.00000148956563
_cell_angle_beta     60.00000094449061
_cell_angle_gamma    60.00000130910064

_space_group_name_H-M_alt    "P 1"
_space_group_IT_number       1

loop_
  _space_group_symop_operation_xyz
  'x, y, z'

loop_
  _atom_site_type_symbol
  _atom_site_label
  _atom_site_symmetry_multiplicity
  _atom_site_fract_x
  _atom_site_fract_y
  _atom_site_fract_z
  _atom_site_occupancy
  Cd  Cd1       1.0  0.24999996811046185  0.25000012530523247  0.24999988211718457  1.0000
  Cd  Cd2       1.0  0.7499999013643889  0.7499998747461859  0.7500000473766406  1.0000
  Sr  Sr1       1.0  4.173664367772218e-08  2.3066378929279407e-08  0.999999962462046  1.0000
  F   F1        1.0  0.2687457922088358  0.2687457227833431  0.7312543175143696  1.0000
  F   F2        1.0  0.7312542698967688  0.7312541975842162  0.26874574384222666  1.0000
  F   F3        1.0  0.7312542128205128  0.2687457806844355  0.26874576253178917  1.0000
  F   F4        1.0  0.2687458726083718  0.7312542298516972  0.7312541855780138  1.0000
  F   F5        1.0  0.2687457845359294  0.7312541369078072  0.26874585583226407  1.0000
  F   F6        1.0  0.7312541646774512  0.2687459323427441  0.7312542371812222  1.0000
