data_image0
_chemical_formula_structural       Cd2SnCl6
_chemical_formula_sum              "Cd2 Sn1 Cl6"
_cell_length_a       7.307149821098134
_cell_length_b       7.3071498982767205
_cell_length_c       7.3071500603814625
_cell_angle_alpha    60.000000167566014
_cell_angle_beta     60.000000135844466
_cell_angle_gamma    59.999998302146324

_space_group_name_H-M_alt    "P 1"
_space_group_IT_number       1

loop_
  _space_group_symop_operation_xyz
  'x, y, z'

loop_
  _atom_site_type_symbol
  _atom_site_label
  _atom_site_symmetry_multiplicity
  _atom_site_fract_x
  _atom_site_fract_y
  _atom_site_fract_z
  _atom_site_occupancy
  Cd  Cd1       1.0  0.24999999076871054  0.25000005913566475  0.24999992702428692  1.0000
  Cd  Cd2       1.0  0.7499998973970343  0.7500001556178123  0.7499999115333554  1.0000
  Sn  Sn1       1.0  0.9999998972847997  2.0815973019785517e-15  1.1670442763578402e-08  1.0000
  Cl  Cl1       1.0  0.23916903940784406  0.23916898395703576  0.7608309989408297  1.0000
  Cl  Cl2       1.0  0.7608309873612902  0.7608308955782228  0.239169051511602  1.0000
  Cl  Cl3       1.0  0.7608310241246009  0.23916900598811455  0.23916899180607953  1.0000
  Cl  Cl4       1.0  0.23916899494870206  0.7608310009300667  0.760831089125299  1.0000
  Cl  Cl5       1.0  0.23916904697985691  0.7608309678328129  0.23916902146859165  1.0000
  Cl  Cl6       1.0  0.7608311155770842  0.2391689452242644  0.7608309881217519  1.0000
