data_image0
_chemical_formula_structural       Cd2SI6
_chemical_formula_sum              "Cd2 S1 I6"
_cell_length_a       7.751746945017775
_cell_length_b       7.751746939190446
_cell_length_c       7.751746890146723
_cell_angle_alpha    59.99999986062623
_cell_angle_beta     59.999999872442906
_cell_angle_gamma    59.999999844414845

_space_group_name_H-M_alt    "P 1"
_space_group_IT_number       1

loop_
  _space_group_symop_operation_xyz
  'x, y, z'

loop_
  _atom_site_type_symbol
  _atom_site_label
  _atom_site_symmetry_multiplicity
  _atom_site_fract_x
  _atom_site_fract_y
  _atom_site_fract_z
  _atom_site_occupancy
  Cd  Cd1       1.0  0.24999998971421114  0.25000000720001986  0.24999998406585777  1.0000
  Cd  Cd2       1.0  0.750000012537267  0.7499999852609834  0.7500000389720206  1.0000
  S   S1        1.0  6.8464924887566885e-09  0.9999999794605222  4.167735131984055e-08  1.0000
  I   I1        1.0  0.2624737120671361  0.2624737286770191  0.7375262885201165  1.0000
  I   I2        1.0  0.7375262948183589  0.7375262811635422  0.2624736796498931  1.0000
  I   I3        1.0  0.7375262814382187  0.26247374480964913  0.2624737031583934  1.0000
  I   I4        1.0  0.2624737086253781  0.7375262618709926  0.7375262775825889  1.0000
  I   I5        1.0  0.26247372044949197  0.7375262852187734  0.2624737186551764  1.0000
  I   I6        1.0  0.7375262760088003  0.2624737246217879  0.7375262714988482  1.0000
