data_image0
_chemical_formula_structural       Cd2SrCl6
_chemical_formula_sum              "Cd2 Sr1 Cl6"
_cell_length_a       7.282268562386218
_cell_length_b       7.2822686989067495
_cell_length_c       7.282268604374099
_cell_angle_alpha    60.00000077936174
_cell_angle_beta     59.9999989216047
_cell_angle_gamma    60.00000082851852

_space_group_name_H-M_alt    "P 1"
_space_group_IT_number       1

loop_
  _space_group_symop_operation_xyz
  'x, y, z'

loop_
  _atom_site_type_symbol
  _atom_site_label
  _atom_site_symmetry_multiplicity
  _atom_site_fract_x
  _atom_site_fract_y
  _atom_site_fract_z
  _atom_site_occupancy
  Cd  Cd1       1.0  0.25000002081231654  0.24999994333662814  0.25000003171443635  1.0000
  Cd  Cd2       1.0  0.7500000212378403  0.7500001058279894  0.7499998171695933  1.0000
  Sr  Sr1       1.0  3.3471328508136156e-09  1.8499995172716912e-08  2.0660000491010015e-08  1.0000
  Cl  Cl1       1.0  0.26651943053988003  0.26651932916402865  0.733480650047879  1.0000
  Cl  Cl2       1.0  0.7334806583456208  0.7334805366824587  0.26651943598095285  1.0000
  Cl  Cl3       1.0  0.7334805282596273  0.26651941822403713  0.26651948553606947  1.0000
  Cl  Cl4       1.0  0.2665193236904338  0.733480649440575  0.7334804985831562  1.0000
  Cl  Cl5       1.0  0.266519434636985  0.7334805669763633  0.2665194486068486  1.0000
  Cl  Cl6       1.0  0.7334805835654943  0.26651943005190604  0.7334806154117944  1.0000
