data_image0
_chemical_formula_structural       Cd2ScF6
_chemical_formula_sum              "Cd2 Sc1 F6"
_cell_length_a       5.776010209390626
_cell_length_b       5.776009735603356
_cell_length_c       5.7760099825102715
_cell_angle_alpha    60.00000025443021
_cell_angle_beta     60.00000135253576
_cell_angle_gamma    60.00000214767237

_space_group_name_H-M_alt    "P 1"
_space_group_IT_number       1

loop_
  _space_group_symop_operation_xyz
  'x, y, z'

loop_
  _atom_site_type_symbol
  _atom_site_label
  _atom_site_symmetry_multiplicity
  _atom_site_fract_x
  _atom_site_fract_y
  _atom_site_fract_z
  _atom_site_occupancy
  Cd  Cd1       1.0  0.25000022129967586  0.24999995606031197  0.2500000216960991  1.0000
  Cd  Cd2       1.0  0.7499999899283053  0.7499999169500997  0.7500002322599653  1.0000
  Sc  Sc1       1.0  0.9999999887120097  0.9999999978795998  0.9999999963164016  1.0000
  F   F1        1.0  0.2456750237998074  0.24567521097974862  0.7543248247767445  1.0000
  F   F2        1.0  0.7543249058692276  0.7543249249601953  0.24567506799605568  1.0000
  F   F3        1.0  0.7543247992571137  0.24567513109639524  0.2456749925684331  1.0000
  F   F4        1.0  0.24567493017656164  0.7543249518335495  0.7543249090987173  1.0000
  F   F5        1.0  0.2456751754777143  0.7543248808233614  0.2456749583110056  1.0000
  F   F6        1.0  0.7543249603479902  0.24567503247463338  0.7543249721365135  1.0000
