data_image0
_chemical_formula_structural       Cd2ScBr6
_chemical_formula_sum              "Cd2 Sc1 Br6"
_cell_length_a       7.541333874186525
_cell_length_b       7.5413338470592395
_cell_length_c       7.541333821913959
_cell_angle_alpha    60.00000032470199
_cell_angle_beta     60.0000004694546
_cell_angle_gamma    60.000000159287374

_space_group_name_H-M_alt    "P 1"
_space_group_IT_number       1

loop_
  _space_group_symop_operation_xyz
  'x, y, z'

loop_
  _atom_site_type_symbol
  _atom_site_label
  _atom_site_symmetry_multiplicity
  _atom_site_fract_x
  _atom_site_fract_y
  _atom_site_fract_z
  _atom_site_occupancy
  Cd  Cd1       1.0  0.2500000118931436  0.25000005439435524  0.24999996228409746  1.0000
  Cd  Cd2       1.0  0.7499999854165188  0.750000015395174  0.7500000283105058  1.0000
  Sc  Sc1       1.0  1.9658338416513845e-08  0.9999999593989307  0.9999999614084265  1.0000
  Br  Br1       1.0  0.24692612928645608  0.24692613197027466  0.7530738580318967  1.0000
  Br  Br2       1.0  0.7530738722160334  0.7530738517449878  0.24692612311446221  1.0000
  Br  Br3       1.0  0.7530738367475036  0.24692617693289767  0.24692611343803683  1.0000
  Br  Br4       1.0  0.2469261203194106  0.7530738619998191  0.7530739272926258  1.0000
  Br  Br5       1.0  0.24692614989776682  0.7530738384923499  0.24692611935451414  1.0000
  Br  Br6       1.0  0.7530738709844194  0.24692611923822838  0.7530738969189475  1.0000
