data_image0
_chemical_formula_structural       Cd2SeF6
_chemical_formula_sum              "Cd2 Se1 F6"
_cell_length_a       5.3494392484484194
_cell_length_b       5.34943934499773
_cell_length_c       5.349439214790883
_cell_angle_alpha    59.99999964947437
_cell_angle_beta     59.999999820364415
_cell_angle_gamma    59.999999376571154

_space_group_name_H-M_alt    "P 1"
_space_group_IT_number       1

loop_
  _space_group_symop_operation_xyz
  'x, y, z'

loop_
  _atom_site_type_symbol
  _atom_site_label
  _atom_site_symmetry_multiplicity
  _atom_site_fract_x
  _atom_site_fract_y
  _atom_site_fract_z
  _atom_site_occupancy
  Cd  Cd1       1.0  0.24999998851728464  0.2500000152328504  0.24999999008757523  1.0000
  Cd  Cd2       1.0  0.7499999894492522  0.749999999908897  0.7500000279427246  1.0000
  Se  Se1       1.0  0.9999999968388841  0.9999999771051737  0.999999962555391  1.0000
  F   F1        1.0  0.2622082961583083  0.2622082773739295  0.737791729842615  1.0000
  F   F2        1.0  0.7377917149495647  0.737791735478335  0.26220827089240323  1.0000
  F   F3        1.0  0.7377917371137925  0.2622082945925124  0.26220826663540364  1.0000
  F   F4        1.0  0.2622082433816371  0.7377917388650964  0.7377917447112284  1.0000
  F   F5        1.0  0.26220826727023416  0.7377917375305268  0.2622082586345198  1.0000
  F   F6        1.0  0.7377917668409386  0.2622082386900143  0.7377917470453557  1.0000
