data_image0
_chemical_formula_structural       Cd2SeCl6
_chemical_formula_sum              "Cd2 Se1 Cl6"
_cell_length_a       7.217381737340647
_cell_length_b       7.217381598076376
_cell_length_c       7.217381679328985
_cell_angle_alpha    59.99999485301392
_cell_angle_beta     59.99999590025003
_cell_angle_gamma    59.99999826912878

_space_group_name_H-M_alt    "P 1"
_space_group_IT_number       1

loop_
  _space_group_symop_operation_xyz
  'x, y, z'

loop_
  _atom_site_type_symbol
  _atom_site_label
  _atom_site_symmetry_multiplicity
  _atom_site_fract_x
  _atom_site_fract_y
  _atom_site_fract_z
  _atom_site_occupancy
  Cd  Cd1       1.0  0.24999997826794665  0.25000018192107726  0.2499997142486957  1.0000
  Cd  Cd2       1.0  0.7500001335534522  0.7500000791052546  0.7499998877251911  1.0000
  Se  Se1       1.0  0.9999999246915429  3.3938760168060376e-08  0.9999999902028813  1.0000
  Cl  Cl1       1.0  0.23992767640532867  0.23992757825781807  0.7600723783565884  1.0000
  Cl  Cl2       1.0  0.7600723814775139  0.7600723790165997  0.23992755210130035  1.0000
  Cl  Cl3       1.0  0.7600723832184753  0.23992751577353985  0.239927738105457  1.0000
  Cl  Cl4       1.0  0.23992763880697537  0.7600722802917577  0.7600724710064167  1.0000
  Cl  Cl5       1.0  0.23992755533915938  0.7600724169530853  0.23992763888386467  1.0000
  Cl  Cl6       1.0  0.7600723314526594  0.23992753523050553  0.7600726249062462  1.0000
