data_image0
_chemical_formula_structural       Cd2ScI6
_chemical_formula_sum              "Cd2 Sc1 I6"
_cell_length_a       8.244471561759454
_cell_length_b       8.244471422007488
_cell_length_c       8.244471440630283
_cell_angle_alpha    60.000000153244194
_cell_angle_beta     59.99999966297959
_cell_angle_gamma    60.00000033639522

_space_group_name_H-M_alt    "P 1"
_space_group_IT_number       1

loop_
  _space_group_symop_operation_xyz
  'x, y, z'

loop_
  _atom_site_type_symbol
  _atom_site_label
  _atom_site_symmetry_multiplicity
  _atom_site_fract_x
  _atom_site_fract_y
  _atom_site_fract_z
  _atom_site_occupancy
  Cd  Cd1       1.0  0.2500000021873833  0.2500000066509648  0.2500000174640433  1.0000
  Cd  Cd2       1.0  0.7499999827669426  0.7499999946988033  0.7500000162700775  1.0000
  Sc  Sc1       1.0  4.977020112997279e-08  0.9999999851446525  0.9999999073406628  1.0000
  I   I1        1.0  0.2458981452893597  0.24589820443376914  0.754101763309427  1.0000
  I   I2        1.0  0.7541018565422566  0.7541018177134846  0.2458981399973747  1.0000
  I   I3        1.0  0.7541017863702366  0.2458982316763381  0.24589818701089974  1.0000
  I   I4        1.0  0.24589808615447745  0.7541018632621178  0.7541019022351773  1.0000
  I   I5        1.0  0.245898206253934  0.7541017340977985  0.24589818986811815  1.0000
  I   I6        1.0  0.7541018965769635  0.2458981573224001  0.7541018750675877  1.0000
