data_image0
_chemical_formula_structural       Cd2SeBr6
_chemical_formula_sum              "Cd2 Se1 Br6"
_cell_length_a       7.551458215018283
_cell_length_b       7.551458085154036
_cell_length_c       7.551458206280441
_cell_angle_alpha    60.000000383193985
_cell_angle_beta     59.99999937270307
_cell_angle_gamma    60.00000021312282

_space_group_name_H-M_alt    "P 1"
_space_group_IT_number       1

loop_
  _space_group_symop_operation_xyz
  'x, y, z'

loop_
  _atom_site_type_symbol
  _atom_site_label
  _atom_site_symmetry_multiplicity
  _atom_site_fract_x
  _atom_site_fract_y
  _atom_site_fract_z
  _atom_site_occupancy
  Cd  Cd1       1.0  0.25000000111778503  0.2500000296775687  0.24999999127670605  1.0000
  Cd  Cd2       1.0  0.7500000095175361  0.75000000631757  0.7499999988631197  1.0000
  Se  Se1       1.0  5.328830302319151e-08  0.9999999318816526  0.9999999703360901  1.0000
  Br  Br1       1.0  0.24463022897378062  0.2446302181244958  0.7553697681326051  1.0000
  Br  Br2       1.0  0.7553697573044612  0.7553697854333346  0.24463023848618645  1.0000
  Br  Br3       1.0  0.7553697611900624  0.24463024640725653  0.2446302027737288  1.0000
  Br  Br4       1.0  0.2446301983671863  0.7553697685036317  0.7553698234472586  1.0000
  Br  Br5       1.0  0.24463019902600988  0.7553697813907201  0.24463024099972216  1.0000
  Br  Br6       1.0  0.7553697881479636  0.24463022865457196  0.7553697659002153  1.0000
