data_image0
_chemical_formula_structural       Cd2TiF6
_chemical_formula_sum              "Cd2 Ti1 F6"
_cell_length_a       6.720296462385532
_cell_length_b       6.720293856949589
_cell_length_c       6.720296088098492
_cell_angle_alpha    59.99999851971033
_cell_angle_beta     59.999994266188594
_cell_angle_gamma    59.999982293363935

_space_group_name_H-M_alt    "P 1"
_space_group_IT_number       1

loop_
  _space_group_symop_operation_xyz
  'x, y, z'

loop_
  _atom_site_type_symbol
  _atom_site_label
  _atom_site_symmetry_multiplicity
  _atom_site_fract_x
  _atom_site_fract_y
  _atom_site_fract_z
  _atom_site_occupancy
  Cd  Cd1       1.0  0.24999994936425246  0.2499990969547526  0.25000014358222794  1.0000
  Cd  Cd2       1.0  0.7499996864049404  0.7499993429515024  0.7500001759928956  1.0000
  Ti  Ti1       1.0  1.2050235006548915e-07  0.9999999580834757  4.254870925217874e-08  1.0000
  F   F1        1.0  0.19978199391444373  0.19978279604408733  0.800217478753223  1.0000
  F   F2        1.0  0.8002174612633294  0.800217876372678  0.1997823044242888  1.0000
  F   F3        1.0  0.8002181812844613  0.19978217402110768  0.1997824891903228  1.0000
  F   F4        1.0  0.19978229812171983  0.8002180391363016  0.800217323988803  1.0000
  F   F5        1.0  0.19978263945470262  0.800217678431986  0.19978229076818707  1.0000
  F   F6        1.0  0.8002175711003477  0.19978305777081953  0.8002178908277405  1.0000
