data_image0
_chemical_formula_structural       Cd2TiI6
_chemical_formula_sum              "Cd2 Ti1 I6"
_cell_length_a       8.22651151361623
_cell_length_b       8.226511227359657
_cell_length_c       8.226511726296195
_cell_angle_alpha    59.999999576808136
_cell_angle_beta     59.99999847674133
_cell_angle_gamma    60.00000234980312

_space_group_name_H-M_alt    "P 1"
_space_group_IT_number       1

loop_
  _space_group_symop_operation_xyz
  'x, y, z'

loop_
  _atom_site_type_symbol
  _atom_site_label
  _atom_site_symmetry_multiplicity
  _atom_site_fract_x
  _atom_site_fract_y
  _atom_site_fract_z
  _atom_site_occupancy
  Cd  Cd1       1.0  0.2499999661222934  0.2499999689432391  0.250000037460153  1.0000
  Cd  Cd2       1.0  0.7500000123433239  0.7499999902012872  0.7499999821013194  1.0000
  Ti  Ti1       1.0  6.984358781063079e-08  0.9999998704763208  8.089448997059705e-08  1.0000
  I   I1        1.0  0.23602664452386787  0.23602666001196862  0.7639733522456932  1.0000
  I   I2        1.0  0.7639734463150549  0.7639734420552471  0.23602655547034967  1.0000
  I   I3        1.0  0.7639733127373743  0.2360266495928019  0.23602673379662734  1.0000
  I   I4        1.0  0.23602659781376165  0.7639733869681774  0.7639733490864554  1.0000
  I   I5        1.0  0.23602670162390596  0.7639732883228559  0.23602666211325576  1.0000
  I   I6        1.0  0.7639732531915572  0.236026733350342  0.7639732444091409  1.0000
