data_image0
_chemical_formula_structural       Cd2VBr6
_chemical_formula_sum              "Cd2 V1 Br6"
_cell_length_a       7.424651075567732
_cell_length_b       7.4246509175677735
_cell_length_c       7.424650889396281
_cell_angle_alpha    60.00000019247601
_cell_angle_beta     59.99999972938886
_cell_angle_gamma    59.99999907346848

_space_group_name_H-M_alt    "P 1"
_space_group_IT_number       1

loop_
  _space_group_symop_operation_xyz
  'x, y, z'

loop_
  _atom_site_type_symbol
  _atom_site_label
  _atom_site_symmetry_multiplicity
  _atom_site_fract_x
  _atom_site_fract_y
  _atom_site_fract_z
  _atom_site_occupancy
  Cd  Cd1       1.0  0.24999996578229697  0.2500000240421487  0.24999999172814014  1.0000
  Cd  Cd2       1.0  0.7500000054283475  0.750000004494256  0.7499999670815684  1.0000
  V   V1        1.0  3.7718954448281335e-08  0.9999999521625978  1.1146153275727659e-07  1.0000
  Br  Br1       1.0  0.23769970259785608  0.23769973222330668  0.7623003144864422  1.0000
  Br  Br2       1.0  0.7623002791543765  0.7623002600226552  0.23769975013135608  1.0000
  Br  Br3       1.0  0.7623004254559074  0.23769960184586034  0.2376996446132782  1.0000
  Br  Br4       1.0  0.23769969329905571  0.7623003013235576  0.7623003084952217  1.0000
  Br  Br5       1.0  0.237699650441211  0.7623003680263762  0.23769964422924003  1.0000
  Br  Br6       1.0  0.7623002416712163  0.2376997578343992  0.7623002704489109  1.0000
