data_image0
_chemical_formula_structural       Cd2VI6
_chemical_formula_sum              "Cd2 V1 I6"
_cell_length_a       8.003272557600496
_cell_length_b       8.003272381599299
_cell_length_c       8.003272452879825
_cell_angle_alpha    59.99999975376335
_cell_angle_beta     59.99999942887144
_cell_angle_gamma    59.99999868851049

_space_group_name_H-M_alt    "P 1"
_space_group_IT_number       1

loop_
  _space_group_symop_operation_xyz
  'x, y, z'

loop_
  _atom_site_type_symbol
  _atom_site_label
  _atom_site_symmetry_multiplicity
  _atom_site_fract_x
  _atom_site_fract_y
  _atom_site_fract_z
  _atom_site_occupancy
  Cd  Cd1       1.0  0.25000008601735274  0.24999995089325572  0.25000002266669313  1.0000
  Cd  Cd2       1.0  0.749999985828077  0.7500000806952336  0.7499999401656723  1.0000
  V   V1        1.0  0.9999999986297174  2.1424272031303748e-08  2.6208183067934756e-08  1.0000
  I   I1        1.0  0.23762665170448155  0.23762666030132967  0.7623733181808794  1.0000
  I   I2        1.0  0.7623733392149711  0.7623733024234294  0.23762668830911812  1.0000
  I   I3        1.0  0.7623732488766027  0.23762674511077925  0.2376266200129939  1.0000
  I   I4        1.0  0.23762671248698233  0.7623732543413032  0.7623734128790094  1.0000
  I   I5        1.0  0.23762669504803857  0.7623732490021098  0.23762666914682481  1.0000
  I   I6        1.0  0.7623732859169225  0.23762675657119278  0.7623732984053468  1.0000
