data_image0
_chemical_formula_structural       Cd2VF6
_chemical_formula_sum              "Cd2 V1 F6"
_cell_length_a       5.755628043783855
_cell_length_b       5.755627701767177
_cell_length_c       5.755627697842257
_cell_angle_alpha    60.000001645686226
_cell_angle_beta     60.00000479629293
_cell_angle_gamma    59.999999397449905

_space_group_name_H-M_alt    "P 1"
_space_group_IT_number       1

loop_
  _space_group_symop_operation_xyz
  'x, y, z'

loop_
  _atom_site_type_symbol
  _atom_site_label
  _atom_site_symmetry_multiplicity
  _atom_site_fract_x
  _atom_site_fract_y
  _atom_site_fract_z
  _atom_site_occupancy
  Cd  Cd1       1.0  0.249999915120299  0.25000019710508825  0.250000280821147  1.0000
  Cd  Cd2       1.0  0.7499998113296207  0.7500001827568352  0.74999972979755  1.0000
  V   V1        1.0  0.9999999215143722  1.276745171344241e-08  3.6333946414806774e-08  1.0000
  F   F1        1.0  0.24382364230198955  0.24382335105358832  0.7561763329071086  1.0000
  F   F2        1.0  0.7561763992137798  0.7561764627846868  0.24382360164861222  1.0000
  F   F3        1.0  0.7561763762092062  0.24382342908909108  0.24382362874125024  1.0000
  F   F4        1.0  0.24382352401631938  0.7561766400981998  0.7561765580476175  1.0000
  F   F5        1.0  0.2438236706440133  0.7561762169093538  0.2438233293608444  1.0000
  F   F6        1.0  0.7561768167374107  0.24382357139401387  0.7561764089289514  1.0000
