data_image0
_chemical_formula_structural       Cd2VCl6
_chemical_formula_sum              "Cd2 V1 Cl6"
_cell_length_a       7.190053093833966
_cell_length_b       7.190052570401208
_cell_length_c       7.190053660895289
_cell_angle_alpha    59.99999702561182
_cell_angle_beta     59.999996824553286
_cell_angle_gamma    60.000000535298916

_space_group_name_H-M_alt    "P 1"
_space_group_IT_number       1

loop_
  _space_group_symop_operation_xyz
  'x, y, z'

loop_
  _atom_site_type_symbol
  _atom_site_label
  _atom_site_symmetry_multiplicity
  _atom_site_fract_x
  _atom_site_fract_y
  _atom_site_fract_z
  _atom_site_occupancy
  Cd  Cd1       1.0  0.24999995690987376  0.25000024150336836  0.24999990212937995  1.0000
  Cd  Cd2       1.0  0.7499999445349699  0.7500000261210452  0.7500001243815597  1.0000
  V   V1        1.0  0.9999999924878057  8.516940035358561e-08  5.7137302425932054e-08  1.0000
  Cl  Cl1       1.0  0.2294594533839532  0.22945922215600384  0.770540802355621  1.0000
  Cl  Cl2       1.0  0.7705405464538565  0.770540629841753  0.22945948569211247  1.0000
  Cl  Cl3       1.0  0.7705406584128073  0.22945933373933527  0.22945936252012022  1.0000
  Cl  Cl4       1.0  0.22945956936140313  0.7705403836907707  0.7705404282207289  1.0000
  Cl  Cl5       1.0  0.22945941268070097  0.7705406221041653  0.22945939081623654  1.0000
  Cl  Cl6       1.0  0.7705404570372962  0.22945945644417506  0.7705404456811561  1.0000
