data_image0
_chemical_formula_structural       Cd2YF6
_chemical_formula_sum              "Cd2 Y1 F6"
_cell_length_a       6.021061921689657
_cell_length_b       6.021062878353884
_cell_length_c       6.021061393674111
_cell_angle_alpha    60.000004685881606
_cell_angle_beta     60.00000168281095
_cell_angle_gamma    60.000004246594614

_space_group_name_H-M_alt    "P 1"
_space_group_IT_number       1

loop_
  _space_group_symop_operation_xyz
  'x, y, z'

loop_
  _atom_site_type_symbol
  _atom_site_label
  _atom_site_symmetry_multiplicity
  _atom_site_fract_x
  _atom_site_fract_y
  _atom_site_fract_z
  _atom_site_occupancy
  Cd  Cd1       1.0  0.2500001844257057  0.2500002491240686  0.2499999044362924  1.0000
  Cd  Cd2       1.0  0.7499999420841936  0.74999994593657  0.7500000808124876  1.0000
  Y   Y1        1.0  0.9999999824110419  0.9999999837271951  1.3609208573170524e-08  1.0000
  F   F1        1.0  0.2517203556165897  0.25172036690964167  0.7482795827028885  1.0000
  F   F2        1.0  0.7482796289818244  0.7482796267750446  0.2517202835431866  1.0000
  F   F3        1.0  0.748279457862685  0.25172034547083966  0.25172038863313595  1.0000
  F   F4        1.0  0.2517204387145216  0.7482795037926964  0.7482797482919401  1.0000
  F   F5        1.0  0.251720441325359  0.7482795027385675  0.25172039119458517  1.0000
  F   F6        1.0  0.7482795966615035  0.2517204400935981  0.7482795850595888  1.0000
