data_image0
_chemical_formula_structural       Cd2YI6
_chemical_formula_sum              "Cd2 Y1 I6"
_cell_length_a       8.474118189521858
_cell_length_b       8.474118159467013
_cell_length_c       8.47411815597639
_cell_angle_alpha    60.00000018443914
_cell_angle_beta     59.99999996597783
_cell_angle_gamma    60.00000071086207

_space_group_name_H-M_alt    "P 1"
_space_group_IT_number       1

loop_
  _space_group_symop_operation_xyz
  'x, y, z'

loop_
  _atom_site_type_symbol
  _atom_site_label
  _atom_site_symmetry_multiplicity
  _atom_site_fract_x
  _atom_site_fract_y
  _atom_site_fract_z
  _atom_site_occupancy
  Cd  Cd1       1.0  0.2499999787641528  0.24999998539755502  0.25000003350841854  1.0000
  Cd  Cd2       1.0  0.7500000265276616  0.7499999879887611  0.7499999769662252  1.0000
  Y   Y1        1.0  0.9999999496114126  0.999999950860579  0.9999999754199853  1.0000
  I   I1        1.0  0.2514056836136549  0.25140560246464894  0.7485943031638247  1.0000
  I   I2        1.0  0.7485944288551526  0.7485944908796647  0.25140551467904965  1.0000
  I   I3        1.0  0.7485943706732795  0.25140556520996044  0.2514056860319945  1.0000
  I   I4        1.0  0.25140548690287723  0.7485945324701828  0.7485944140377748  1.0000
  I   I5        1.0  0.25140564440397745  0.7485943404209265  0.25140563332127863  1.0000
  I   I6        1.0  0.7485944313190586  0.2514055361318268  0.7485944705988732  1.0000
