data_image0
_chemical_formula_structural       Cd2YBr6
_chemical_formula_sum              "Cd2 Y1 Br6"
_cell_length_a       7.744703911566574
_cell_length_b       7.744704119070399
_cell_length_c       7.744704005428617
_cell_angle_alpha    59.99999942848581
_cell_angle_beta     60.0000000437996
_cell_angle_gamma    60.00000144823898

_space_group_name_H-M_alt    "P 1"
_space_group_IT_number       1

loop_
  _space_group_symop_operation_xyz
  'x, y, z'

loop_
  _atom_site_type_symbol
  _atom_site_label
  _atom_site_symmetry_multiplicity
  _atom_site_fract_x
  _atom_site_fract_y
  _atom_site_fract_z
  _atom_site_occupancy
  Cd  Cd1       1.0  0.24999997565726098  0.2500000156234247  0.24999999381407653  1.0000
  Cd  Cd2       1.0  0.7500000056927012  0.749999958312066  0.7500000173497939  1.0000
  Y   Y1        1.0  1.2041141916739471e-09  4.1116310894020276e-08  1.4993525197363656e-08  1.0000
  Br  Br1       1.0  0.2533245379393575  0.25332456624332733  0.746675446035657  1.0000
  Br  Br2       1.0  0.7466755291469483  0.7466754725294248  0.2533244962974351  1.0000
  Br  Br3       1.0  0.7466754291689112  0.2533245578151398  0.2533245570233669  1.0000
  Br  Br4       1.0  0.25332456130766423  0.7466754066319713  0.7466754633598213  1.0000
  Br  Br5       1.0  0.2533245452687805  0.7466754212790311  0.2533245655163198  1.0000
  Br  Br6       1.0  0.7466754119545767  0.2533245668890286  0.7466754467209537  1.0000
