data_image0
_chemical_formula_structural       Cd2ZnBr6
_chemical_formula_sum              "Cd2 Zn1 Br6"
_cell_length_a       7.1891876874913425
_cell_length_b       7.18918774751873
_cell_length_c       7.189187731311064
_cell_angle_alpha    60.000000147593646
_cell_angle_beta     59.99999971166288
_cell_angle_gamma    59.99999949244095

_space_group_name_H-M_alt    "P 1"
_space_group_IT_number       1

loop_
  _space_group_symop_operation_xyz
  'x, y, z'

loop_
  _atom_site_type_symbol
  _atom_site_label
  _atom_site_symmetry_multiplicity
  _atom_site_fract_x
  _atom_site_fract_y
  _atom_site_fract_z
  _atom_site_occupancy
  Cd  Cd1       1.0  0.24999999888406532  0.25000006091208965  0.24999991365027338  1.0000
  Cd  Cd2       1.0  0.7500000123604043  0.7499999766015364  0.750000055938563  1.0000
  Zn  Zn1       1.0  4.4696983037710176e-08  0.999999986371257  0.9999999552553477  1.0000
  Br  Br1       1.0  0.25110065397093784  0.25110067955501303  0.7488993316376987  1.0000
  Br  Br2       1.0  0.7488993111179653  0.7488992795933431  0.2511006751739567  1.0000
  Br  Br3       1.0  0.7488993176364449  0.2511007265863855  0.2511006959780958  1.0000
  Br  Br4       1.0  0.25110065223751327  0.748899290484127  0.7488993587656841  1.0000
  Br  Br5       1.0  0.25110070632126263  0.7488993222772397  0.25110072247387655  1.0000
  Br  Br6       1.0  0.7488993125003028  0.2511006828681224  0.748899277593254  1.0000
