data_image0
_chemical_formula_structural       Cd2ZnF6
_chemical_formula_sum              "Cd2 Zn1 F6"
_cell_length_a       5.365541466408733
_cell_length_b       5.3655415104000275
_cell_length_c       5.365541516578683
_cell_angle_alpha    59.99999904269435
_cell_angle_beta     59.99999974304244
_cell_angle_gamma    59.99999949589853

_space_group_name_H-M_alt    "P 1"
_space_group_IT_number       1

loop_
  _space_group_symop_operation_xyz
  'x, y, z'

loop_
  _atom_site_type_symbol
  _atom_site_label
  _atom_site_symmetry_multiplicity
  _atom_site_fract_x
  _atom_site_fract_y
  _atom_site_fract_z
  _atom_site_occupancy
  Cd  Cd1       1.0  0.24999995519680462  0.24999999809501744  0.25000011894981405  1.0000
  Cd  Cd2       1.0  0.7500000608244368  0.7499997249368519  0.7500001665296698  1.0000
  Zn  Zn1       1.0  0.9999999911306418  1.3695671753891763e-08  0.9999999584482028  1.0000
  F   F1        1.0  0.25595211826271536  0.25595239860197133  0.744047690207371  1.0000
  F   F2        1.0  0.7440477638004976  0.7440478037783982  0.2559520964215367  1.0000
  F   F3        1.0  0.7440477616688098  0.2559523434738434  0.25595214899237295  1.0000
  F   F4        1.0  0.25595221182558114  0.744047804123839  0.7440477721393619  1.0000
  F   F5        1.0  0.255952236340452  0.7440477362629779  0.25595220049563105  1.0000
  F   F6        1.0  0.7440478652598501  0.2559522013344096  0.7440478473155572  1.0000
