data_image0
_chemical_formula_structural       Cd2ZnCl6
_chemical_formula_sum              "Cd2 Zn1 Cl6"
_cell_length_a       6.676438477050745
_cell_length_b       6.676438936204416
_cell_length_c       6.676438699415962
_cell_angle_alpha    60.000001359990634
_cell_angle_beta     59.9999983003043
_cell_angle_gamma    59.99999873897486

_space_group_name_H-M_alt    "P 1"
_space_group_IT_number       1

loop_
  _space_group_symop_operation_xyz
  'x, y, z'

loop_
  _atom_site_type_symbol
  _atom_site_label
  _atom_site_symmetry_multiplicity
  _atom_site_fract_x
  _atom_site_fract_y
  _atom_site_fract_z
  _atom_site_occupancy
  Cd  Cd1       1.0  0.25000010122890004  0.2500000433750848  0.24999987903515075  1.0000
  Cd  Cd2       1.0  0.7499999602865352  0.7499998476233076  0.7500000623918476  1.0000
  Zn  Zn1       1.0  4.3765084106770576e-10  0.9999999468015792  1.739355780373529e-08  1.0000
  Cl  Cl1       1.0  0.2510838999175243  0.2510839651849132  0.7489159963592278  1.0000
  Cl  Cl2       1.0  0.7489159941254436  0.7489163037057139  0.25108382038642935  1.0000
  Cl  Cl3       1.0  0.7489160284729139  0.2510839244729195  0.25108392252397277  1.0000
  Cl  Cl4       1.0  0.25108389737298675  0.748915885810633  0.7489163847175891  1.0000
  Cl  Cl5       1.0  0.2510839522108683  0.7489161661336674  0.2510838128209271  1.0000
  Cl  Cl6       1.0  0.7489161826395303  0.2510839303206925  0.7489160865678991  1.0000
