data_image0
_chemical_formula_structural       Cl2CrF6
_chemical_formula_sum              "Cl2 Cr1 F6"
_cell_length_a       10.949923354069693
_cell_length_b       10.949926841286283
_cell_length_c       10.949907103616617
_cell_angle_alpha    59.999980121634835
_cell_angle_beta     60.00003647017379
_cell_angle_gamma    59.99987512706811

_space_group_name_H-M_alt    "P 1"
_space_group_IT_number       1

loop_
  _space_group_symop_operation_xyz
  'x, y, z'

loop_
  _atom_site_type_symbol
  _atom_site_label
  _atom_site_symmetry_multiplicity
  _atom_site_fract_x
  _atom_site_fract_y
  _atom_site_fract_z
  _atom_site_occupancy
  Cl  Cl1       1.0  0.2499972006448648  0.25000034691443873  0.2500016483426161  1.0000
  Cl  Cl2       1.0  0.7500025547959568  0.7499955187115284  0.7499995821042892  1.0000
  Cr  Cr1       1.0  6.281006170473434e-06  0.999998844585185  0.9999959129905732  1.0000
  F   F1        1.0  0.11604255424614698  0.11603834543434785  0.8839592827335675  1.0000
  F   F2        1.0  0.8839553762966103  0.8839597806754225  0.11604255641031433  1.0000
  F   F3        1.0  0.8839582819206484  0.11604469982250464  0.11604227455243614  1.0000
  F   F4        1.0  0.11603931689330328  0.8839591921349581  0.883960875873247  1.0000
  F   F5        1.0  0.11604045996949945  0.8839579920437728  0.11604215854790031  1.0000
  F   F6        1.0  0.8839584281013113  0.11604385754065154  0.8839568688554243  1.0000
