data_image0
_chemical_formula_structural       Cl2CF6
_chemical_formula_sum              "Cl2 C1 F6"
_cell_length_a       5.8125090724219755
_cell_length_b       5.812498545853643
_cell_length_c       5.812513604012983
_cell_angle_alpha    60.000064823228776
_cell_angle_beta     59.999963582261195
_cell_angle_gamma    59.999631933983075

_space_group_name_H-M_alt    "P 1"
_space_group_IT_number       1

loop_
  _space_group_symop_operation_xyz
  'x, y, z'

loop_
  _atom_site_type_symbol
  _atom_site_label
  _atom_site_symmetry_multiplicity
  _atom_site_fract_x
  _atom_site_fract_y
  _atom_site_fract_z
  _atom_site_occupancy
  Cl  Cl1       1.0  0.25001122944108367  0.24994699425352856  0.2500083572479224  1.0000
  Cl  Cl2       1.0  0.7499798236624033  0.749990023878377  0.7500251790614069  1.0000
  C   C1        1.0  0.9999754454417091  0.9999500473426359  5.376448207403096e-05  1.0000
  F   F1        1.0  0.1866820500424691  0.18668497699395203  0.8133228336866186  1.0000
  F   F2        1.0  0.8133755650541286  0.8133732976074456  0.18663058273903796  1.0000
  F   F3        1.0  0.8133403915591803  0.1866628705133895  0.18665381554232494  1.0000
  F   F4        1.0  0.18665071758445703  0.8133596259455932  0.8133362035748517  1.0000
  F   F5        1.0  0.18664785456368285  0.8133554360984868  0.1866383219441047  1.0000
  F   F6        1.0  0.8133368898805435  0.18666916322974994  0.8133348913611811  1.0000
