data_image0
_chemical_formula_structural       Cl2CoF6
_chemical_formula_sum              "Cl2 Co1 F6"
_cell_length_a       5.5463784028626675
_cell_length_b       5.5463786703417055
_cell_length_c       5.546378357593259
_cell_angle_alpha    59.99999829116764
_cell_angle_beta     59.999997285072155
_cell_angle_gamma    59.99999824725193

_space_group_name_H-M_alt    "P 1"
_space_group_IT_number       1

loop_
  _space_group_symop_operation_xyz
  'x, y, z'

loop_
  _atom_site_type_symbol
  _atom_site_label
  _atom_site_symmetry_multiplicity
  _atom_site_fract_x
  _atom_site_fract_y
  _atom_site_fract_z
  _atom_site_occupancy
  Cl  Cl1       1.0  0.25000000649756465  0.25000003956546724  0.24999995758103064  1.0000
  Cl  Cl2       1.0  0.7500000013257467  0.7499999795805319  0.7500000415334214  1.0000
  Co  Co1       1.0  1.5204741763767643e-08  0.9999999668771731  4.6821588101916766e-08  1.0000
  F   F1        1.0  0.23201966426981588  0.23201966588366923  0.7679803076291645  1.0000
  F   F2        1.0  0.7679803120940855  0.7679803289722593  0.23201968330046238  1.0000
  F   F3        1.0  0.7679803073065911  0.23201965291452767  0.23201970505805292  1.0000
  F   F4        1.0  0.23201968299916867  0.7679803750642257  0.7679802839749711  1.0000
  F   F5        1.0  0.23201968901817824  0.7679803554035831  0.2320196731919938  1.0000
  F   F6        1.0  0.7679803131908749  0.2320196306195906  0.7679803434880227  1.0000
