data_image0
_chemical_formula_structural       Cl2GeF6
_chemical_formula_sum              "Cl2 Ge1 F6"
_cell_length_a       5.833678195720529
_cell_length_b       5.83367868548657
_cell_length_c       5.833678323584884
_cell_angle_alpha    60.000001752614516
_cell_angle_beta     59.9999996040618
_cell_angle_gamma    59.99999902229456

_space_group_name_H-M_alt    "P 1"
_space_group_IT_number       1

loop_
  _space_group_symop_operation_xyz
  'x, y, z'

loop_
  _atom_site_type_symbol
  _atom_site_label
  _atom_site_symmetry_multiplicity
  _atom_site_fract_x
  _atom_site_fract_y
  _atom_site_fract_z
  _atom_site_occupancy
  Cl  Cl1       1.0  0.2500001183282532  0.25000009413488106  0.24999993980002747  1.0000
  Cl  Cl2       1.0  0.7499999805513566  0.7499998499203665  0.7500001251504149  1.0000
  Ge  Ge1       1.0  0.99999996876916  4.618764403355431e-08  0.9999999428102521  1.0000
  F   F1        1.0  0.22530888000431212  0.22530880246175727  0.7746911856297561  1.0000
  F   F2        1.0  0.7746911069499769  0.774691198278329  0.2253088092324198  1.0000
  F   F3        1.0  0.7746912225844611  0.22530871257141416  0.22530895992307806  1.0000
  F   F4        1.0  0.22530874027778608  0.7746912713731663  0.7746911290927981  1.0000
  F   F5        1.0  0.22530881122373156  0.7746912193365185  0.22530879304621493  1.0000
  F   F6        1.0  0.7746911859464111  0.22530883388952538  0.7746910933267602  1.0000
