data_image0
_chemical_formula_structural       Cl2HfF6
_chemical_formula_sum              "Cl2 Hf1 F6"
_cell_length_a       5.975667641737185
_cell_length_b       5.975667175374205
_cell_length_c       5.9756678985873934
_cell_angle_alpha    60.00000203547708
_cell_angle_beta     60.0000047529598
_cell_angle_gamma    60.00000248261672

_space_group_name_H-M_alt    "P 1"
_space_group_IT_number       1

loop_
  _space_group_symop_operation_xyz
  'x, y, z'

loop_
  _atom_site_type_symbol
  _atom_site_label
  _atom_site_symmetry_multiplicity
  _atom_site_fract_x
  _atom_site_fract_y
  _atom_site_fract_z
  _atom_site_occupancy
  Cl  Cl1       1.0  0.24999994811338405  0.2500000010005357  0.250000046964245  1.0000
  Cl  Cl2       1.0  0.7500000526039223  0.7499999579114344  0.7499999639191172  1.0000
  Hf  Hf1       1.0  3.5130275054215116e-09  1.844598114326848e-08  1.4122293258120539e-08  1.0000
  F   F1        1.0  0.24025418011314995  0.2402540427098732  0.7597459210424625  1.0000
  F   F2        1.0  0.75974585807874  0.7597459776886978  0.2402540470541242  1.0000
  F   F3        1.0  0.7597458148255205  0.2402541921693584  0.24025403880525753  1.0000
  F   F4        1.0  0.24025412503149401  0.7597458507742975  0.7597459755534868  1.0000
  F   F5        1.0  0.2402540226024036  0.7597459277595737  0.24025414524076796  1.0000
  F   F6        1.0  0.7597459533059439  0.24025408239122856  0.7597458457338464  1.0000
