data_image0
_chemical_formula_structural       Cl2NbF6
_chemical_formula_sum              "Cl2 Nb1 F6"
_cell_length_a       5.304185006701686
_cell_length_b       5.304184973141735
_cell_length_c       5.304185156301255
_cell_angle_alpha    59.99999857939554
_cell_angle_beta     59.99999998307926
_cell_angle_gamma    59.999999736187554

_space_group_name_H-M_alt    "P 1"
_space_group_IT_number       1

loop_
  _space_group_symop_operation_xyz
  'x, y, z'

loop_
  _atom_site_type_symbol
  _atom_site_label
  _atom_site_symmetry_multiplicity
  _atom_site_fract_x
  _atom_site_fract_y
  _atom_site_fract_z
  _atom_site_occupancy
  Cl  Cl1       1.0  0.2499999978756039  0.24999998491745645  0.25000001958357787  1.0000
  Cl  Cl2       1.0  0.7500000663456036  0.7499999847695801  0.7499999923003031  1.0000
  Nb  Nb1       1.0  0.99999998258431  0.9999999999999998  2.3790274752545993e-08  1.0000
  F   F1        1.0  0.2538727932019213  0.253872797484045  0.7461271933808089  1.0000
  F   F2        1.0  0.7461271685473937  0.7461272183833146  0.2538727919750482  1.0000
  F   F3        1.0  0.7461271855521869  0.2538728068218965  0.2538728017518061  1.0000
  F   F4        1.0  0.2538727736240024  0.7461272298266086  0.7461271839265597  1.0000
  F   F5        1.0  0.2538728369101202  0.7461271961394568  0.253872784511906  1.0000
  F   F6        1.0  0.746127189797183  0.2538727620024988  0.7461272179660007  1.0000
