data_image0
_chemical_formula_structural       Cl2PtF6
_chemical_formula_sum              "Cl2 Pt1 F6"
_cell_length_a       5.409488950229438
_cell_length_b       5.409489185780849
_cell_length_c       5.409489079879749
_cell_angle_alpha    59.99999930793201
_cell_angle_beta     59.99999878516654
_cell_angle_gamma    59.99999916712989

_space_group_name_H-M_alt    "P 1"
_space_group_IT_number       1

loop_
  _space_group_symop_operation_xyz
  'x, y, z'

loop_
  _atom_site_type_symbol
  _atom_site_label
  _atom_site_symmetry_multiplicity
  _atom_site_fract_x
  _atom_site_fract_y
  _atom_site_fract_z
  _atom_site_occupancy
  Cl  Cl1       1.0  0.24999996951354625  0.25000000597123445  0.25000002927490417  1.0000
  Cl  Cl2       1.0  0.7500000230978872  0.7499999431994747  0.7499999995048767  1.0000
  Pt  Pt1       1.0  0.9999999937035181  3.169694473848397e-08  3.351485371049288e-08  1.0000
  F   F1        1.0  0.2496350554048342  0.24963505187153015  0.7503649670922928  1.0000
  F   F2        1.0  0.7503649440838548  0.7503649471086641  0.24963505367875477  1.0000
  F   F3        1.0  0.7503649606111832  0.24963505862841465  0.24963502494659615  1.0000
  F   F4        1.0  0.24963507391501413  0.75036493129551  0.7503649310729362  1.0000
  F   F5        1.0  0.24963504399875447  0.7503649697984477  0.2496350389839434  1.0000
  F   F6        1.0  0.7503649465631482  0.24963504955835478  0.750364940938728  1.0000
