data_image0
_chemical_formula_structural       Cl2PbF6
_chemical_formula_sum              "Cl2 Pb1 F6"
_cell_length_a       6.192888118180368
_cell_length_b       6.192888152101605
_cell_length_c       6.19288845311024
_cell_angle_alpha    60.00000001705337
_cell_angle_beta     60.000001475423716
_cell_angle_gamma    60.000002690049826

_space_group_name_H-M_alt    "P 1"
_space_group_IT_number       1

loop_
  _space_group_symop_operation_xyz
  'x, y, z'

loop_
  _atom_site_type_symbol
  _atom_site_label
  _atom_site_symmetry_multiplicity
  _atom_site_fract_x
  _atom_site_fract_y
  _atom_site_fract_z
  _atom_site_occupancy
  Cl  Cl1       1.0  0.2500000416579051  0.24999999376279025  0.24999995817393506  1.0000
  Cl  Cl2       1.0  0.7500000072220785  0.7500000940151854  0.7499999287063872  1.0000
  Pb  Pb1       1.0  0.9999999518413738  1.582130621244922e-08  0.9999999838735513  1.0000
  F   F1        1.0  0.23455337105256935  0.23455326014255284  0.765446697411581  1.0000
  F   F2        1.0  0.7654466201037086  0.7654466931543064  0.23455337922696184  1.0000
  F   F3        1.0  0.7654466858609633  0.23455334779172068  0.23455326137827673  1.0000
  F   F4        1.0  0.23455330602882804  0.765446664835042  0.7654467190235875  1.0000
  F   F5        1.0  0.23455327988606453  0.765446651716363  0.23455333973497244  1.0000
  F   F6        1.0  0.7654467033595599  0.23455332531245773  0.7654467257634059  1.0000
