data_image0
_chemical_formula_structural       Cl2PdF6
_chemical_formula_sum              "Cl2 Pd1 F6"
_cell_length_a       5.915382182631206
_cell_length_b       5.915381545145892
_cell_length_c       5.915382302705692
_cell_angle_alpha    59.999999715349496
_cell_angle_beta     59.99999959805756
_cell_angle_gamma    60.00000024807159

_space_group_name_H-M_alt    "P 1"
_space_group_IT_number       1

loop_
  _space_group_symop_operation_xyz
  'x, y, z'

loop_
  _atom_site_type_symbol
  _atom_site_label
  _atom_site_symmetry_multiplicity
  _atom_site_fract_x
  _atom_site_fract_y
  _atom_site_fract_z
  _atom_site_occupancy
  Cl  Cl1       1.0  0.24999997248439942  0.24999994494524433  0.25000002029341145  1.0000
  Cl  Cl2       1.0  0.7500000044047374  0.7499999839074959  0.7500000510610879  1.0000
  Pd  Pd1       1.0  0.9999999681754622  3.105661457667872e-08  0.9999999902409156  1.0000
  F   F1        1.0  0.22692720494246055  0.2269272340753709  0.77307277882064  1.0000
  F   F2        1.0  0.7730728564150835  0.7730727693132479  0.2269271792215627  1.0000
  F   F3        1.0  0.7730728478582771  0.22692712211356902  0.22692718376838414  1.0000
  F   F4        1.0  0.22692716655244496  0.7730728522888751  0.7730728426694562  1.0000
  F   F5        1.0  0.2269271297391992  0.7730728470129008  0.22692715669487656  1.0000
  F   F6        1.0  0.7730728490410183  0.22692718743233314  0.7730728609178387  1.0000
