data_image0
_chemical_formula_structural       Cl2PF6
_chemical_formula_sum              "Cl2 P1 F6"
_cell_length_a       5.188394995380248
_cell_length_b       5.188395029821217
_cell_length_c       5.18839481776928
_cell_angle_alpha    59.9999981153462
_cell_angle_beta     59.9999987594446
_cell_angle_gamma    59.99999724279056

_space_group_name_H-M_alt    "P 1"
_space_group_IT_number       1

loop_
  _space_group_symop_operation_xyz
  'x, y, z'

loop_
  _atom_site_type_symbol
  _atom_site_label
  _atom_site_symmetry_multiplicity
  _atom_site_fract_x
  _atom_site_fract_y
  _atom_site_fract_z
  _atom_site_occupancy
  Cl  Cl1       1.0  0.24999997173209157  0.2499999992990621  0.2499999366425385  1.0000
  Cl  Cl2       1.0  0.7500000619703899  0.7499999648495204  0.7500000575901732  1.0000
  P   P1        1.0  0.9999999881972651  3.5408200626116073e-08  1.9035320562769138e-08  1.0000
  F   F1        1.0  0.23014407276163582  0.2301441075629162  0.7698558503989971  1.0000
  F   F2        1.0  0.7698558725477364  0.7698559014360565  0.23014415596818286  1.0000
  F   F3        1.0  0.7698559017696631  0.23014410925489356  0.2301441454658352  1.0000
  F   F4        1.0  0.23014410140387404  0.7698558997440774  0.7698558550978026  1.0000
  F   F5        1.0  0.2301441086927271  0.7698558698569375  0.23014413119712854  1.0000
  F   F6        1.0  0.7698559150275587  0.2301441509447675  0.7698558262084699  1.0000
