data_image0
_chemical_formula_structural       Cl2RuF6
_chemical_formula_sum              "Cl2 Ru1 F6"
_cell_length_a       6.137774091951476
_cell_length_b       6.137773933189796
_cell_length_c       6.137773860123878
_cell_angle_alpha    60.00000030584481
_cell_angle_beta     60.00000132019385
_cell_angle_gamma    59.99999904988417

_space_group_name_H-M_alt    "P 1"
_space_group_IT_number       1

loop_
  _space_group_symop_operation_xyz
  'x, y, z'

loop_
  _atom_site_type_symbol
  _atom_site_label
  _atom_site_symmetry_multiplicity
  _atom_site_fract_x
  _atom_site_fract_y
  _atom_site_fract_z
  _atom_site_occupancy
  Cl  Cl1       1.0  0.24999988543596197  0.2500001880498578  0.24999998602408294  1.0000
  Cl  Cl2       1.0  0.7500000778436949  0.749999965522987  0.7499999211649875  1.0000
  Ru  Ru1       1.0  0.9999999977013787  0.9999999561007173  0.9999999937723584  1.0000
  F   F1        1.0  0.2172472448650667  0.2172473120625391  0.7827527084537403  1.0000
  F   F2        1.0  0.7827527032925813  0.7827525821054535  0.217247388134927  1.0000
  F   F3        1.0  0.7827527072029781  0.217247316657991  0.21724730965685535  1.0000
  F   F4        1.0  0.21724730951617272  0.7827526653085665  0.7827526582448671  1.0000
  F   F5        1.0  0.21724734133286377  0.7827526081563161  0.21724735594003766  1.0000
  F   F6        1.0  0.7827527091551795  0.21724734587433364  0.7827526905079524  1.0000
