data_image0
_chemical_formula_structural       Cl2SF6
_chemical_formula_sum              "Cl2 S1 F6"
_cell_length_a       5.230581162140527
_cell_length_b       5.230580878028615
_cell_length_c       5.230581108957889
_cell_angle_alpha    59.99999985684882
_cell_angle_beta     59.99999959771021
_cell_angle_gamma    60.00000037197215

_space_group_name_H-M_alt    "P 1"
_space_group_IT_number       1

loop_
  _space_group_symop_operation_xyz
  'x, y, z'

loop_
  _atom_site_type_symbol
  _atom_site_label
  _atom_site_symmetry_multiplicity
  _atom_site_fract_x
  _atom_site_fract_y
  _atom_site_fract_z
  _atom_site_occupancy
  Cl  Cl1       1.0  0.24999999719199267  0.24999997819225825  0.25000000872125305  1.0000
  Cl  Cl2       1.0  0.7499999971274586  0.7499999907729745  0.7499999685242511  1.0000
  S   S1        1.0  4.245698354123051e-08  1.1707542307117837e-08  0.9999999690940701  1.0000
  F   F1        1.0  0.21603315412918134  0.2160331791097341  0.783966828789072  1.0000
  F   F2        1.0  0.7839668523875112  0.7839668062460577  0.2160331685755348  1.0000
  F   F3        1.0  0.7839667935088594  0.21603319953859643  0.2160331784412936  1.0000
  F   F4        1.0  0.2160331603813376  0.7839668443549036  0.7839668369978754  1.0000
  F   F5        1.0  0.21603318966107282  0.7839668155564989  0.21603316970967779  1.0000
  F   F6        1.0  0.7839668065981464  0.21603316745778514  0.7839668817502561  1.0000
