data_image0
_chemical_formula_structural       Cl2TaF6
_chemical_formula_sum              "Cl2 Ta1 F6"
_cell_length_a       5.272580624475039
_cell_length_b       5.272580776785116
_cell_length_c       5.272580690845594
_cell_angle_alpha    59.99999981042273
_cell_angle_beta     60.00000329473887
_cell_angle_gamma    59.99999899981678

_space_group_name_H-M_alt    "P 1"
_space_group_IT_number       1

loop_
  _space_group_symop_operation_xyz
  'x, y, z'

loop_
  _atom_site_type_symbol
  _atom_site_label
  _atom_site_symmetry_multiplicity
  _atom_site_fract_x
  _atom_site_fract_y
  _atom_site_fract_z
  _atom_site_occupancy
  Cl  Cl1       1.0  0.2499999394610626  0.2499999918653539  0.24999997066538643  1.0000
  Cl  Cl2       1.0  0.7500000065912251  0.7499999825646217  0.7500000571732354  1.0000
  Ta  Ta1       1.0  2.6257329451681306e-08  3.948856019659419e-08  0.9999999993693314  1.0000
  F   F1        1.0  0.2550511024318903  0.2550511367267621  0.7449488366972778  1.0000
  F   F2        1.0  0.7449489399352552  0.744948916680335  0.2550510769428943  1.0000
  F   F3        1.0  0.7449488601144034  0.25505107570557656  0.2550511078693689  1.0000
  F   F4        1.0  0.2550510915779875  0.7449489475043874  0.7449488662067447  1.0000
  F   F5        1.0  0.2550510997057952  0.7449488353102716  0.25505114493797104  1.0000
  F   F6        1.0  0.7449489345010817  0.2550510717568605  0.7449489426791457  1.0000
