data_image0
_chemical_formula_structural       Cl2TeF6
_chemical_formula_sum              "Cl2 Te1 F6"
_cell_length_a       5.344623220469693
_cell_length_b       5.3446231655421
_cell_length_c       5.344623362238655
_cell_angle_alpha    59.999999436285414
_cell_angle_beta     59.99999880841052
_cell_angle_gamma    60.000000100953756

_space_group_name_H-M_alt    "P 1"
_space_group_IT_number       1

loop_
  _space_group_symop_operation_xyz
  'x, y, z'

loop_
  _atom_site_type_symbol
  _atom_site_label
  _atom_site_symmetry_multiplicity
  _atom_site_fract_x
  _atom_site_fract_y
  _atom_site_fract_z
  _atom_site_occupancy
  Cl  Cl1       1.0  0.2500000220321126  0.24999998085124742  0.2500000102167122  1.0000
  Cl  Cl2       1.0  0.7499999717536522  0.7500000181747523  0.7499999857508372  1.0000
  Te  Te1       1.0  0.9999999851386807  0.9999999862507251  1.0563218615940222e-08  1.0000
  F   F1        1.0  0.24772875554119028  0.2477287699274321  0.7522712599350573  1.0000
  F   F2        1.0  0.752271267727587  0.7522712313901139  0.2477287482108012  1.0000
  F   F3        1.0  0.7522712536671415  0.24772877434771898  0.24772873433268472  1.0000
  F   F4        1.0  0.24772874812779072  0.7522712200951892  0.7522712655349442  1.0000
  F   F5        1.0  0.2477287660321468  0.7522712295065933  0.24772874303496245  1.0000
  F   F6        1.0  0.7522712314418053  0.2477287649363147  0.7522712571221175  1.0000
