data_image0
_chemical_formula_structural       Cl2VF6
_chemical_formula_sum              "Cl2 V1 F6"
_cell_length_a       11.154299150849337
_cell_length_b       11.154301934552334
_cell_length_c       11.154298078104826
_cell_angle_alpha    60.00000862043659
_cell_angle_beta     60.00002151900945
_cell_angle_gamma    60.00000187097948

_space_group_name_H-M_alt    "P 1"
_space_group_IT_number       1

loop_
  _space_group_symop_operation_xyz
  'x, y, z'

loop_
  _atom_site_type_symbol
  _atom_site_label
  _atom_site_symmetry_multiplicity
  _atom_site_fract_x
  _atom_site_fract_y
  _atom_site_fract_z
  _atom_site_occupancy
  Cl  Cl1       1.0  0.25000017538970637  0.2500002684052045  0.24999977703134982  1.0000
  Cl  Cl2       1.0  0.7499999194845673  0.750000264998611  0.7499998606154994  1.0000
  V   V1        1.0  0.9999938890553348  3.1402939004346706e-07  2.2986879816059187e-06  1.0000
  F   F1        1.0  0.11415823168240401  0.11415854293847617  0.8858415061173313  1.0000
  F   F2        1.0  0.8858446462473222  0.8858443215236601  0.11415562736737565  1.0000
  F   F3        1.0  0.8858435155850353  0.11415626093274836  0.1141563817544205  1.0000
  F   F4        1.0  0.1141576025155069  0.8858422400690358  0.8858424004666335  1.0000
  F   F5        1.0  0.1141577541102922  0.885842245711552  0.11415798996733602  1.0000
  F   F6        1.0  0.8858442931799079  0.11415551743229653  0.8858442342377687  1.0000
