data_image0
_chemical_formula_structural       Cl2WF6
_chemical_formula_sum              "Cl2 W1 F6"
_cell_length_a       11.16170112533608
_cell_length_b       11.161752031220814
_cell_length_c       11.161665325275369
_cell_angle_alpha    59.99994355076612
_cell_angle_beta     60.00063467211424
_cell_angle_gamma    59.999346187755016

_space_group_name_H-M_alt    "P 1"
_space_group_IT_number       1

loop_
  _space_group_symop_operation_xyz
  'x, y, z'

loop_
  _atom_site_type_symbol
  _atom_site_label
  _atom_site_symmetry_multiplicity
  _atom_site_fract_x
  _atom_site_fract_y
  _atom_site_fract_z
  _atom_site_occupancy
  Cl  Cl1       1.0  0.2501404791286551  0.24988527194103166  0.25018374436984947  1.0000
  Cl  Cl2       1.0  0.7501402188837273  0.7498861097875654  0.7501846312466384  1.0000
  W   W1        1.0  0.9999759164931872  1.6454051514916914e-05  0.9999655470053849  1.0000
  F   F1        1.0  0.1191264122806748  0.11922202857659454  0.8807556614676987  1.0000
  F   F2        1.0  0.8807735648398201  0.8808737597971291  0.11910437825123914  1.0000
  F   F3        1.0  0.880772020306422  0.11922207796472722  0.11910372009527191  1.0000
  F   F4        1.0  0.11910649565151805  0.8808853614298459  0.8807661512653844  1.0000
  F   F5        1.0  0.11915382245029088  0.8808340166830548  0.11913856205925827  1.0000
  F   F6        1.0  0.8808107114316118  0.11917542188538287  0.8807972305573903  1.0000
