data_image0
_chemical_formula_structural       Cl2ZrF6
_chemical_formula_sum              "Cl2 Zr1 F6"
_cell_length_a       5.975671943194708
_cell_length_b       5.97567054929048
_cell_length_c       5.975670675240264
_cell_angle_alpha    59.999992622461576
_cell_angle_beta     60.00000315358455
_cell_angle_gamma    59.99997966336487

_space_group_name_H-M_alt    "P 1"
_space_group_IT_number       1

loop_
  _space_group_symop_operation_xyz
  'x, y, z'

loop_
  _atom_site_type_symbol
  _atom_site_label
  _atom_site_symmetry_multiplicity
  _atom_site_fract_x
  _atom_site_fract_y
  _atom_site_fract_z
  _atom_site_occupancy
  Cl  Cl1       1.0  0.2500006850199383  0.2499990280004834  0.25000025114551344  1.0000
  Cl  Cl2       1.0  0.7499999276059537  0.7499999533753217  0.7500005079853771  1.0000
  Zr  Zr1       1.0  0.9999988891736106  1.5064213786030995e-06  0.9999982793608437  1.0000
  F   F1        1.0  0.24360118540186101  0.24360208872957645  0.7563974774674929  1.0000
  F   F2        1.0  0.7563975932517554  0.7563985917256814  0.24360139786436286  1.0000
  F   F3        1.0  0.7563972946136511  0.24360270744840232  0.24360153525763645  1.0000
  F   F4        1.0  0.2436009315650244  0.7563992478285646  0.7563978792181393  1.0000
  F   F5        1.0  0.24360341300282332  0.7563967213301834  0.24360317852241006  1.0000
  F   F6        1.0  0.756399997000844  0.24360003013189538  0.7563995710981997  1.0000
