data_image0
_chemical_formula_structural       Co2AuI6
_chemical_formula_sum              "Co2 Au1 I6"
_cell_length_a       7.543786452757429
_cell_length_b       7.543786427965806
_cell_length_c       7.5437864852710055
_cell_angle_alpha    59.99999962606515
_cell_angle_beta     59.99999995367369
_cell_angle_gamma    60.00000002885431

_space_group_name_H-M_alt    "P 1"
_space_group_IT_number       1

loop_
  _space_group_symop_operation_xyz
  'x, y, z'

loop_
  _atom_site_type_symbol
  _atom_site_label
  _atom_site_symmetry_multiplicity
  _atom_site_fract_x
  _atom_site_fract_y
  _atom_site_fract_z
  _atom_site_occupancy
  Co  Co1       1.0  0.24999997663725218  0.24999999163588466  0.2500000313713166  1.0000
  Co  Co2       1.0  0.7499999938123293  0.7500000219895828  0.7499999909013059  1.0000
  Au  Au1       1.0  0.9999999829769909  9.741088577677535e-09  2.8827251021568504e-08  1.0000
  I   I1        1.0  0.2649200671866465  0.26492005266277646  0.7350799419748931  1.0000
  I   I2        1.0  0.7350799640571204  0.7350799301159103  0.2649200480913018  1.0000
  I   I3        1.0  0.7350799585585746  0.2649200383211356  0.26492004979422434  1.0000
  I   I4        1.0  0.2649200581823403  0.7350799558221546  0.7350799285851523  1.0000
  I   I5        1.0  0.2649200436754788  0.7350799566468529  0.26492003669036934  1.0000
  I   I6        1.0  0.7350799519916054  0.2649200456140112  0.7350799415391646  1.0000
