data_image0
_chemical_formula_structural       Co2AuBr6
_chemical_formula_sum              "Co2 Au1 Br6"
_cell_length_a       6.986930928721086
_cell_length_b       6.98693099946061
_cell_length_c       6.986931107331486
_cell_angle_alpha    59.999999766396
_cell_angle_beta     59.99999940440808
_cell_angle_gamma    59.99999987626078

_space_group_name_H-M_alt    "P 1"
_space_group_IT_number       1

loop_
  _space_group_symop_operation_xyz
  'x, y, z'

loop_
  _atom_site_type_symbol
  _atom_site_label
  _atom_site_symmetry_multiplicity
  _atom_site_fract_x
  _atom_site_fract_y
  _atom_site_fract_z
  _atom_site_occupancy
  Co  Co1       1.0  0.25000004603984793  0.2500000663122168  0.2499998841830735  1.0000
  Co  Co2       1.0  0.7500000430015488  0.7500001025266989  0.7499997869567688  1.0000
  Au  Au1       1.0  0.9999999751098836  5.2587247544456285e-09  5.4184245501116774e-08  1.0000
  Br  Br1       1.0  0.260184420428463  0.2601843519270113  0.7398156381406543  1.0000
  Br  Br2       1.0  0.7398155916427243  0.7398156065629197  0.2601844285576473  1.0000
  Br  Br3       1.0  0.7398155966946924  0.2601843264510232  0.260184440131313  1.0000
  Br  Br4       1.0  0.2601843964640565  0.7398155549109465  0.7398156745871884  1.0000
  Br  Br5       1.0  0.2601843490974464  0.7398156239737321  0.26018443101038646  1.0000
  Br  Br6       1.0  0.7398155776026412  0.2601843625627302  0.7398156700751735  1.0000
