data_image0
_chemical_formula_structural       Co2AgCl6
_chemical_formula_sum              "Co2 Ag1 Cl6"
_cell_length_a       6.535842312423693
_cell_length_b       6.535842380737842
_cell_length_c       6.535842352274602
_cell_angle_alpha    60.00000009725276
_cell_angle_beta     60.000000308683326
_cell_angle_gamma    60.00000007401952

_space_group_name_H-M_alt    "P 1"
_space_group_IT_number       1

loop_
  _space_group_symop_operation_xyz
  'x, y, z'

loop_
  _atom_site_type_symbol
  _atom_site_label
  _atom_site_symmetry_multiplicity
  _atom_site_fract_x
  _atom_site_fract_y
  _atom_site_fract_z
  _atom_site_occupancy
  Co  Co1       1.0  0.25000000077852597  0.2500000223739621  0.24999990879931308  1.0000
  Co  Co2       1.0  0.7499999390551579  0.7500000502568768  0.7500002009976583  1.0000
  Ag  Ag1       1.0  3.024858415692631e-08  0.999999988756661  0.9999999537767856  1.0000
  Cl  Cl1       1.0  0.2604935554315384  0.26049350820601824  0.7395065039363946  1.0000
  Cl  Cl2       1.0  0.7395064693670511  0.739506463234769  0.26049343802031355  1.0000
  Cl  Cl3       1.0  0.7395064949602659  0.2604935508142387  0.26049352180647545  1.0000
  Cl  Cl4       1.0  0.2604934907377507  0.7395064637260149  0.7395064915919699  1.0000
  Cl  Cl5       1.0  0.2604935738262215  0.7395064667779034  0.26049348871402583  1.0000
  Cl  Cl6       1.0  0.739506440068925  0.2604934896717649  0.739506495260432  1.0000
