data_image0
_chemical_formula_structural       Co2AgI6
_chemical_formula_sum              "Co2 Ag1 I6"
_cell_length_a       7.499197316007958
_cell_length_b       7.499197367379596
_cell_length_c       7.499197418009505
_cell_angle_alpha    60.00000019391144
_cell_angle_beta     60.000000033769
_cell_angle_gamma    60.00000052946817

_space_group_name_H-M_alt    "P 1"
_space_group_IT_number       1

loop_
  _space_group_symop_operation_xyz
  'x, y, z'

loop_
  _atom_site_type_symbol
  _atom_site_label
  _atom_site_symmetry_multiplicity
  _atom_site_fract_x
  _atom_site_fract_y
  _atom_site_fract_z
  _atom_site_occupancy
  Co  Co1       1.0  0.2500000278459899  0.2499999976090936  0.24999998910741125  1.0000
  Co  Co2       1.0  0.74999999040482  0.7500000320233107  0.7499999516195608  1.0000
  Ag  Ag1       1.0  0.9999999816322415  0.9999999673366413  3.4849890644355316e-08  1.0000
  I   I1        1.0  0.26335610166846807  0.26335604972884125  0.736643923693001  1.0000
  I   I2        1.0  0.7366439339093974  0.7366439325416932  0.2633560840569431  1.0000
  I   I3        1.0  0.7366439263041442  0.26335605399085316  0.2633560968218318  1.0000
  I   I4        1.0  0.26335608544604433  0.7366439397118569  0.736643915792387  1.0000
  I   I5        1.0  0.26335605905417037  0.736643933438787  0.26335607581688636  1.0000
  I   I6        1.0  0.7366438904515809  0.26335609456044934  0.7366439334360994  1.0000
