data_image0
_chemical_formula_structural       Co2AuCl6
_chemical_formula_sum              "Co2 Au1 Cl6"
_cell_length_a       6.580474872385243
_cell_length_b       6.580474843216092
_cell_length_c       6.58047477118913
_cell_angle_alpha    59.99999938708212
_cell_angle_beta     59.99999967248772
_cell_angle_gamma    59.99999914627743

_space_group_name_H-M_alt    "P 1"
_space_group_IT_number       1

loop_
  _space_group_symop_operation_xyz
  'x, y, z'

loop_
  _atom_site_type_symbol
  _atom_site_label
  _atom_site_symmetry_multiplicity
  _atom_site_fract_x
  _atom_site_fract_y
  _atom_site_fract_z
  _atom_site_occupancy
  Co  Co1       1.0  0.2499999541753422  0.2500000989161924  0.2500000102124679  1.0000
  Co  Co2       1.0  0.7499999440104437  0.7500000417669023  0.7500002100845129  1.0000
  Au  Au1       1.0  1.495935797312376e-08  1.3028260729823954e-08  0.9999999723293658  1.0000
  Cl  Cl1       1.0  0.25826564331166013  0.2582655827218378  0.7417343954245191  1.0000
  Cl  Cl2       1.0  0.7417344257254476  0.7417343402031874  0.25826550640521806  1.0000
  Cl  Cl3       1.0  0.7417343890001264  0.2582656269997394  0.2582655746715534  1.0000
  Cl  Cl4       1.0  0.25826556117399907  0.7417343945678311  0.7417343980542901  1.0000
  Cl  Cl5       1.0  0.25826564894836124  0.7417343592990219  0.2582655339709728  1.0000
  Cl  Cl6       1.0  0.7417344263991228  0.2582655394306617  0.7417343980763077  1.0000
