data_image0
_chemical_formula_structural       Co2AgBr6
_chemical_formula_sum              "Co2 Ag1 Br6"
_cell_length_a       6.9792612280137565
_cell_length_b       6.979261255521689
_cell_length_c       6.979261215993017
_cell_angle_alpha    60.00000020470795
_cell_angle_beta     60.00000028922133
_cell_angle_gamma    60.000000301517574

_space_group_name_H-M_alt    "P 1"
_space_group_IT_number       1

loop_
  _space_group_symop_operation_xyz
  'x, y, z'

loop_
  _atom_site_type_symbol
  _atom_site_label
  _atom_site_symmetry_multiplicity
  _atom_site_fract_x
  _atom_site_fract_y
  _atom_site_fract_z
  _atom_site_occupancy
  Co  Co1       1.0  0.24999992609744184  0.24999996268534172  0.2500000477703603  1.0000
  Co  Co2       1.0  0.7499999753754374  0.749999877527018  0.7499999210805519  1.0000
  Ag  Ag1       1.0  0.9999999809147606  1.754834533238382e-08  0.9999999993356306  1.0000
  Br  Br1       1.0  0.25980459592734256  0.2598046212488989  0.740195405371436  1.0000
  Br  Br2       1.0  0.7401954198675634  0.7401954418274469  0.25980464849497453  1.0000
  Br  Br3       1.0  0.7401954162179796  0.259804618369864  0.2598046017327503  1.0000
  Br  Br4       1.0  0.25980463385351255  0.7401954113646257  0.7401953585332287  1.0000
  Br  Br5       1.0  0.25980457820610364  0.7401954309948948  0.2598046265413396  1.0000
  Br  Br6       1.0  0.7401954681549981  0.25980461979760927  0.7401954009900968  1.0000
