data_image0
_chemical_formula_structural       Co2BeCl6
_chemical_formula_sum              "Co2 Be1 Cl6"
_cell_length_a       6.269946652284029
_cell_length_b       6.269946626739953
_cell_length_c       6.269946621141685
_cell_angle_alpha    60.00000028253008
_cell_angle_beta     60.0000006109335
_cell_angle_gamma    59.999999797614365

_space_group_name_H-M_alt    "P 1"
_space_group_IT_number       1

loop_
  _space_group_symop_operation_xyz
  'x, y, z'

loop_
  _atom_site_type_symbol
  _atom_site_label
  _atom_site_symmetry_multiplicity
  _atom_site_fract_x
  _atom_site_fract_y
  _atom_site_fract_z
  _atom_site_occupancy
  Co  Co1       1.0  0.2499996466324753  0.25000035962655437  0.2499999566336315  1.0000
  Co  Co2       1.0  0.7500000037550506  0.7499998873314442  0.7500003867006073  1.0000
  Be  Be1       1.0  0.9999999862339486  1.3673504140213187e-08  0.9999999777175349  1.0000
  Cl  Cl1       1.0  0.2453086027765265  0.24530873094772063  0.7546913390375612  1.0000
  Cl  Cl2       1.0  0.7546914485722925  0.7546912855140636  0.24530847727409388  1.0000
  Cl  Cl3       1.0  0.7546914781654402  0.24530868158325186  0.2453085313912856  1.0000
  Cl  Cl4       1.0  0.24530860347000835  0.7546912274438572  0.7546914558719149  1.0000
  Cl  Cl5       1.0  0.24530879376421047  0.7546912463762042  0.24530852346377768  1.0000
  Cl  Cl6       1.0  0.7546914437055876  0.24530857084309088  0.7546913392813805  1.0000
