data_image0
_chemical_formula_structural       Co2BeBr6
_chemical_formula_sum              "Co2 Be1 Br6"
_cell_length_a       6.780134109235878
_cell_length_b       6.780134219052593
_cell_length_c       6.7801341052117605
_cell_angle_alpha    59.999999257158905
_cell_angle_beta     59.99999975061716
_cell_angle_gamma    59.99999871769237

_space_group_name_H-M_alt    "P 1"
_space_group_IT_number       1

loop_
  _space_group_symop_operation_xyz
  'x, y, z'

loop_
  _atom_site_type_symbol
  _atom_site_label
  _atom_site_symmetry_multiplicity
  _atom_site_fract_x
  _atom_site_fract_y
  _atom_site_fract_z
  _atom_site_occupancy
  Co  Co1       1.0  0.25000026246848217  0.2500000318964812  0.24999989224401858  1.0000
  Co  Co2       1.0  0.7500001305715115  0.7500001860080887  0.7499995455436214  1.0000
  Be  Be1       1.0  0.9999999814729074  0.9999999891617644  2.7956738025633817e-08  1.0000
  Br  Br1       1.0  0.2466541778165814  0.24665413165599231  0.7533458268245184  1.0000
  Br  Br2       1.0  0.7533457429109253  0.7533458478073926  0.2466543350642313  1.0000
  Br  Br3       1.0  0.7533456493732663  0.24665415749686276  0.24665428284653326  1.0000
  Br  Br4       1.0  0.24665414875132385  0.7533457912581897  0.7533459055513406  1.0000
  Br  Br5       1.0  0.24665410506303959  0.7533457476218727  0.24665430466943636  1.0000
  Br  Br6       1.0  0.7533458019042353  0.2466541198464103  0.7533458699504805  1.0000
