data_image0
_chemical_formula_structural       Co2BeI6
_chemical_formula_sum              "Co2 Be1 I6"
_cell_length_a       7.433432233057531
_cell_length_b       7.433432293092269
_cell_length_c       7.433432447226487
_cell_angle_alpha    59.999999218111505
_cell_angle_beta     59.99999910361025
_cell_angle_gamma    59.9999985736748

_space_group_name_H-M_alt    "P 1"
_space_group_IT_number       1

loop_
  _space_group_symop_operation_xyz
  'x, y, z'

loop_
  _atom_site_type_symbol
  _atom_site_label
  _atom_site_symmetry_multiplicity
  _atom_site_fract_x
  _atom_site_fract_y
  _atom_site_fract_z
  _atom_site_occupancy
  Co  Co1       1.0  0.2499999954502728  0.25000002497688273  0.25000000671468026  1.0000
  Co  Co2       1.0  0.7499999912317751  0.7500000090259714  0.7499999551414792  1.0000
  Be  Be1       1.0  0.9999999856425914  1.9771403217914924e-08  1.747210582702766e-08  1.0000
  I   I1        1.0  0.24334721683023416  0.24334720594271664  0.7566527929502157  1.0000
  I   I2        1.0  0.75665278541803  0.7566527720411619  0.24334725236018004  1.0000
  I   I3        1.0  0.7566527912747713  0.24334719210603856  0.24334724396778737  1.0000
  I   I4        1.0  0.24334723080679085  0.7566527776397552  0.7566527726753516  1.0000
  I   I5        1.0  0.24334720151405204  0.7566527667748487  0.24334722401605252  1.0000
  I   I6        1.0  0.7566527999023199  0.24334722768519912  0.7566527448632542  1.0000
