data_image0
_chemical_formula_structural       Co2CuBr6
_chemical_formula_sum              "Co2 Cu1 Br6"
_cell_length_a       6.859380530955495
_cell_length_b       6.859380547464134
_cell_length_c       6.859380421158159
_cell_angle_alpha    60.0000003291155
_cell_angle_beta     59.999999953302364
_cell_angle_gamma    59.99999890557968

_space_group_name_H-M_alt    "P 1"
_space_group_IT_number       1

loop_
  _space_group_symop_operation_xyz
  'x, y, z'

loop_
  _atom_site_type_symbol
  _atom_site_label
  _atom_site_symmetry_multiplicity
  _atom_site_fract_x
  _atom_site_fract_y
  _atom_site_fract_z
  _atom_site_occupancy
  Co  Co1       1.0  0.2499998523929386  0.25000006726854207  0.2499999480799782  1.0000
  Co  Co2       1.0  0.7500000836390657  0.7500001071739267  0.7500000379836477  1.0000
  Cu  Cu1       1.0  0.999999989899666  1.0276831206394796e-16  5.02437531408521e-08  1.0000
  Br  Br1       1.0  0.2514524945572309  0.2514525257262477  0.74854751284591  1.0000
  Br  Br2       1.0  0.7485475067565333  0.7485474326702835  0.2514525004905036  1.0000
  Br  Br3       1.0  0.7485475788682896  0.25145247406137744  0.25145249512028633  1.0000
  Br  Br4       1.0  0.25145247259124587  0.7485474147005122  0.7485475235869895  1.0000
  Br  Br5       1.0  0.251452489797546  0.7485475383957906  0.2514524823597746  1.0000
  Br  Br6       1.0  0.74854752625826  0.2514524414267838  0.7485474560361491  1.0000
