data_image0
_chemical_formula_structural       Co2CdI6
_chemical_formula_sum              "Co2 Cd1 I6"
_cell_length_a       7.645622938034979
_cell_length_b       7.645622967869123
_cell_length_c       7.645622973413396
_cell_angle_alpha    60.000000121097145
_cell_angle_beta     59.99999982136072
_cell_angle_gamma    60.00000089227249

_space_group_name_H-M_alt    "P 1"
_space_group_IT_number       1

loop_
  _space_group_symop_operation_xyz
  'x, y, z'

loop_
  _atom_site_type_symbol
  _atom_site_label
  _atom_site_symmetry_multiplicity
  _atom_site_fract_x
  _atom_site_fract_y
  _atom_site_fract_z
  _atom_site_occupancy
  Co  Co1       1.0  0.24999991685460357  0.2500000798539653  0.2500000049181435  1.0000
  Co  Co2       1.0  0.7499999439447823  0.749999972046231  0.7500000191233295  1.0000
  Cd  Cd1       1.0  0.9999999790393548  0.9999999903886585  4.144475116343601e-08  1.0000
  I   I1        1.0  0.2674186904538865  0.26741868751479997  0.7325813081948718  1.0000
  I   I2        1.0  0.7325813576669514  0.732581282688997  0.2674186734975779  1.0000
  I   I3        1.0  0.7325813313668331  0.2674186849047451  0.267418687706594  1.0000
  I   I4        1.0  0.26741873718068665  0.7325812965122835  0.7325812912452778  1.0000
  I   I5        1.0  0.2674187212323443  0.7325812812852616  0.26741870041526267  1.0000
  I   I6        1.0  0.7325813186958156  0.26741872255822985  0.7325812737854301  1.0000
