data_image0
_chemical_formula_structural       Co2CF6
_chemical_formula_sum              "Co2 C1 F6"
_cell_length_a       5.042456013160941
_cell_length_b       5.04245629937386
_cell_length_c       5.042456767075382
_cell_angle_alpha    60.00000309147803
_cell_angle_beta     60.00000538587571
_cell_angle_gamma    60.00000355587758

_space_group_name_H-M_alt    "P 1"
_space_group_IT_number       1

loop_
  _space_group_symop_operation_xyz
  'x, y, z'

loop_
  _atom_site_type_symbol
  _atom_site_label
  _atom_site_symmetry_multiplicity
  _atom_site_fract_x
  _atom_site_fract_y
  _atom_site_fract_z
  _atom_site_occupancy
  Co  Co1       1.0  0.2499997605717922  0.2499999845419383  0.24999996751667014  1.0000
  Co  Co2       1.0  0.7500000308328414  0.7499998977619257  0.7500000893933951  1.0000
  C   C1        1.0  2.6923845123561378e-08  2.9146387588347222e-08  1.1628092805941087e-08  1.0000
  F   F1        1.0  0.22083143820844567  0.22083140887514466  0.7791686481908566  1.0000
  F   F2        1.0  0.7791686048571728  0.7791686458781764  0.22083132755259435  1.0000
  F   F3        1.0  0.7791686689577048  0.2208314135240021  0.2208313821139003  1.0000
  F   F4        1.0  0.22083140473463292  0.7791685562190249  0.7791686029728939  1.0000
  F   F5        1.0  0.2208314845981482  0.7791685681758916  0.22083142497601557  1.0000
  F   F6        1.0  0.7791685702189064  0.22083143071352332  0.7791686065373935  1.0000
