data_image0
_chemical_formula_structural       Co2CuI6
_chemical_formula_sum              "Co2 Cu1 I6"
_cell_length_a       7.379544963849616
_cell_length_b       7.379544948824393
_cell_length_c       7.379544996462384
_cell_angle_alpha    60.000000181618894
_cell_angle_beta     59.99999991844934
_cell_angle_gamma    60.00000033983805

_space_group_name_H-M_alt    "P 1"
_space_group_IT_number       1

loop_
  _space_group_symop_operation_xyz
  'x, y, z'

loop_
  _atom_site_type_symbol
  _atom_site_label
  _atom_site_symmetry_multiplicity
  _atom_site_fract_x
  _atom_site_fract_y
  _atom_site_fract_z
  _atom_site_occupancy
  Co  Co1       1.0  0.24999999177278256  0.2500000495207312  0.249999954714828  1.0000
  Co  Co2       1.0  0.7499999913806924  0.7499999079132009  0.7499999899887783  1.0000
  Cu  Cu1       1.0  0.9999999915282103  6.6385930214302885e-09  3.6149122879912385e-08  1.0000
  I   I1        1.0  0.25344204760131644  0.2534420575111454  0.7465579515140445  1.0000
  I   I2        1.0  0.7465579865075901  0.7465579629894199  0.25344204052100605  1.0000
  I   I3        1.0  0.7465579711936856  0.25344203820742006  0.25344204639368867  1.0000
  I   I4        1.0  0.25344207932186935  0.7465579424615879  0.7465579627742046  1.0000
  I   I5        1.0  0.2534420145150691  0.7465579669274187  0.25344204805379095  1.0000
  I   I6        1.0  0.746557926989937  0.25344206850998025  0.7465579665536278  1.0000
