data_image0
_chemical_formula_structural       Co2CBr6
_chemical_formula_sum              "Co2 C1 Br6"
_cell_length_a       6.968167324084176
_cell_length_b       6.96816757816655
_cell_length_c       6.968167413553748
_cell_angle_alpha    60.00000005137845
_cell_angle_beta     60.00000237376828
_cell_angle_gamma    59.999998101636606

_space_group_name_H-M_alt    "P 1"
_space_group_IT_number       1

loop_
  _space_group_symop_operation_xyz
  'x, y, z'

loop_
  _atom_site_type_symbol
  _atom_site_label
  _atom_site_symmetry_multiplicity
  _atom_site_fract_x
  _atom_site_fract_y
  _atom_site_fract_z
  _atom_site_occupancy
  Co  Co1       1.0  0.24999956405152407  0.25000213923930126  0.24999910823711588  1.0000
  Co  Co2       1.0  0.7499988402868698  0.7499997193963092  0.7499995780165792  1.0000
  C   C1        1.0  0.9999998732068457  0.9999999578169292  0.99999980894938  1.0000
  Br  Br1       1.0  0.24207281430069674  0.24207273393972892  0.7579271875360665  1.0000
  Br  Br2       1.0  0.7579277769103151  0.7579266306211629  0.24207323092604643  1.0000
  Br  Br3       1.0  0.7579273300375204  0.24207250200644528  0.2420730560386846  1.0000
  Br  Br4       1.0  0.24207351916545441  0.7579267447933311  0.7579277113564957  1.0000
  Br  Br5       1.0  0.24207310743919128  0.7579266437872664  0.24207274974837767  1.0000
  Br  Br6       1.0  0.7579271740734643  0.24207291411275642  0.7579275618571217  1.0000
