data_image0
_chemical_formula_structural       Co2CuCl6
_chemical_formula_sum              "Co2 Cu1 Cl6"
_cell_length_a       6.401754599461512
_cell_length_b       6.401754572097026
_cell_length_c       6.401754600923167
_cell_angle_alpha    59.999999920999535
_cell_angle_beta     60.00000000957993
_cell_angle_gamma    60.00000005486703

_space_group_name_H-M_alt    "P 1"
_space_group_IT_number       1

loop_
  _space_group_symop_operation_xyz
  'x, y, z'

loop_
  _atom_site_type_symbol
  _atom_site_label
  _atom_site_symmetry_multiplicity
  _atom_site_fract_x
  _atom_site_fract_y
  _atom_site_fract_z
  _atom_site_occupancy
  Co  Co1       1.0  0.25000017447703643  0.2499999321577958  0.24999993115430033  1.0000
  Co  Co2       1.0  0.7500000549313468  0.7500000872705713  0.7499999682281366  1.0000
  Cu  Cu1       1.0  1.2316605313230786e-08  0.999999984694885  2.4925331026980358e-08  1.0000
  Cl  Cl1       1.0  0.2530167720718647  0.2530167141752928  0.7469832537745946  1.0000
  Cl  Cl2       1.0  0.7469832086412851  0.7469832937742374  0.25301674757758613  1.0000
  Cl  Cl3       1.0  0.7469832198333363  0.253016726389652  0.253016745270732  1.0000
  Cl  Cl4       1.0  0.25301670509252244  0.7469832432970908  0.7469832687409093  1.0000
  Cl  Cl5       1.0  0.25301672134190845  0.7469832754607242  0.2530167389229557  1.0000
  Cl  Cl6       1.0  0.7469831285370792  0.2530167516201996  0.7469833198426808  1.0000
