data_image0
_chemical_formula_structural       Co2CCl6
_chemical_formula_sum              "Co2 C1 Cl6"
_cell_length_a       6.472966300516113
_cell_length_b       6.472966312965398
_cell_length_c       6.472966383734968
_cell_angle_alpha    60.000000894883975
_cell_angle_beta     60.0000002454289
_cell_angle_gamma    60.00000130237705

_space_group_name_H-M_alt    "P 1"
_space_group_IT_number       1

loop_
  _space_group_symop_operation_xyz
  'x, y, z'

loop_
  _atom_site_type_symbol
  _atom_site_label
  _atom_site_symmetry_multiplicity
  _atom_site_fract_x
  _atom_site_fract_y
  _atom_site_fract_z
  _atom_site_occupancy
  Co  Co1       1.0  0.2500000046210606  0.25000029510836347  0.2499997546153522  1.0000
  Co  Co2       1.0  0.7500001125336397  0.7499999203581211  0.7500006409201081  1.0000
  C   C1        1.0  1.7683926097122865e-07  0.9999999564818763  0.9999993787250886  1.0000
  Cl  Cl1       1.0  0.24665399440265975  0.24665401681756763  0.7533460283031943  1.0000
  Cl  Cl2       1.0  0.7533459128910762  0.7533458221225747  0.2466539497780095  1.0000
  Cl  Cl3       1.0  0.7533457911391352  0.24665431918656708  0.24665401862070502  1.0000
  Cl  Cl4       1.0  0.24665382115851228  0.7533459284454735  0.7533461497944762  1.0000
  Cl  Cl5       1.0  0.246654193229447  0.7533458241232833  0.24665404572211955  1.0000
  Cl  Cl6       1.0  0.753345990729841  0.24665391264388942  0.7533460474929576  1.0000
