data_image0
_chemical_formula_structural       Co2CF6
_chemical_formula_sum              "Co2 C1 F6"
_cell_length_a       5.042885120864197
_cell_length_b       5.042885326390016
_cell_length_c       5.042885032315605
_cell_angle_alpha    59.999997362755614
_cell_angle_beta     59.99999670114163
_cell_angle_gamma    59.99999756268267

_space_group_name_H-M_alt    "P 1"
_space_group_IT_number       1

loop_
  _space_group_symop_operation_xyz
  'x, y, z'

loop_
  _atom_site_type_symbol
  _atom_site_label
  _atom_site_symmetry_multiplicity
  _atom_site_fract_x
  _atom_site_fract_y
  _atom_site_fract_z
  _atom_site_occupancy
  Co  Co1       1.0  0.2500000190593348  0.24999990733298433  0.24999993435646967  1.0000
  Co  Co2       1.0  0.7499998675403703  0.7499999405782596  0.7500000463875134  1.0000
  C   C1        1.0  0.9999999217075785  6.31451404995078e-08  0.9999998885941287  1.0000
  F   F1        1.0  0.2208241190401008  0.22082444217272298  0.7791757782097705  1.0000
  F   F2        1.0  0.7791758622452979  0.7791756437470967  0.22082427216309905  1.0000
  F   F3        1.0  0.7791757105573855  0.22082431108745657  0.2208242560537956  1.0000
  F   F4        1.0  0.22082417830415602  0.7791758185482265  0.7791758325540151  1.0000
  F   F5        1.0  0.2208244245643787  0.7791757154036953  0.22082431694052324  1.0000
  F   F6        1.0  0.7791759005822402  0.22082414950814447  0.7791757433934308  1.0000
