data_image0
_chemical_formula_structural       Co2CS6
_chemical_formula_sum              "Co2 C1 S6"
_cell_length_a       5.743529108934409
_cell_length_b       5.743528149282203
_cell_length_c       5.7435282852224185
_cell_angle_alpha    59.99999956801861
_cell_angle_beta     60.00000856360332
_cell_angle_gamma    60.000003038570824

_space_group_name_H-M_alt    "P 1"
_space_group_IT_number       1

loop_
  _space_group_symop_operation_xyz
  'x, y, z'

loop_
  _atom_site_type_symbol
  _atom_site_label
  _atom_site_symmetry_multiplicity
  _atom_site_fract_x
  _atom_site_fract_y
  _atom_site_fract_z
  _atom_site_occupancy
  Co  Co1       1.0  0.2500040668146573  0.2499955507551502  0.25000091771023725  1.0000
  Co  Co2       1.0  0.7499983401005781  0.7500047413394171  0.7499968675640061  1.0000
  C   C1        1.0  0.999999706131245  0.9999999829408546  2.024733732794111e-07  1.0000
  S   S1        1.0  0.22571325504654893  0.22570048191192632  0.7742929705808219  1.0000
  S   S2        1.0  0.7742886983650739  0.7742973046229036  0.22571014029301648  1.0000
  S   S3        1.0  0.7742895800002566  0.22570381000575798  0.22571010312174838  1.0000
  S   S4        1.0  0.2257082466882199  0.7742991070621694  0.7742870405653144  1.0000
  S   S5        1.0  0.2257068633691421  0.7742955218502573  0.22570700490015816  1.0000
  S   S6        1.0  0.7742912375563397  0.2257035206628234  0.7742947560295381  1.0000
