data_image0
_chemical_formula_structural       Co2CdF6
_chemical_formula_sum              "Co2 Cd1 F6"
_cell_length_a       5.509491084428695
_cell_length_b       5.509491020853431
_cell_length_c       5.5094910892278
_cell_angle_alpha    59.999999364768314
_cell_angle_beta     59.99999880466589
_cell_angle_gamma    59.99999610322389

_space_group_name_H-M_alt    "P 1"
_space_group_IT_number       1

loop_
  _space_group_symop_operation_xyz
  'x, y, z'

loop_
  _atom_site_type_symbol
  _atom_site_label
  _atom_site_symmetry_multiplicity
  _atom_site_fract_x
  _atom_site_fract_y
  _atom_site_fract_z
  _atom_site_occupancy
  Co  Co1       1.0  0.249999829199632  0.24999971541789245  0.250000229670404  1.0000
  Co  Co2       1.0  0.7500003718353263  0.750000146591427  0.7499997231284667  1.0000
  Cd  Cd1       1.0  0.9999999797826025  0.9999999977770279  0.9999999876245392  1.0000
  F   F1        1.0  0.2666046954488404  0.2666047627377769  0.7333953226952162  1.0000
  F   F2        1.0  0.7333952201668748  0.7333953393526209  0.26660473989512334  1.0000
  F   F3        1.0  0.7333953522837636  0.266604672069885  0.26660475829671676  1.0000
  F   F4        1.0  0.26660457753791655  0.7333953811151094  0.7333952091102623  1.0000
  F   F5        1.0  0.26660454609781853  0.7333953535708799  0.26660492197438806  1.0000
  F   F6        1.0  0.733395454157886  0.26660463292492653  0.733395116162159  1.0000
