data_image0
_chemical_formula_structural       Co2CdBr6
_chemical_formula_sum              "Co2 Cd1 Br6"
_cell_length_a       7.006645720914083
_cell_length_b       7.0066456890085
_cell_length_c       7.006645642938596
_cell_angle_alpha    59.99999943146091
_cell_angle_beta     60.000001259606044
_cell_angle_gamma    60.00000205754394

_space_group_name_H-M_alt    "P 1"
_space_group_IT_number       1

loop_
  _space_group_symop_operation_xyz
  'x, y, z'

loop_
  _atom_site_type_symbol
  _atom_site_label
  _atom_site_symmetry_multiplicity
  _atom_site_fract_x
  _atom_site_fract_y
  _atom_site_fract_z
  _atom_site_occupancy
  Co  Co1       1.0  0.2500001252299975  0.2500001378842106  0.24999983132475267  1.0000
  Co  Co2       1.0  0.7499999080130825  0.7499999626748054  0.7499998748047204  1.0000
  Cd  Cd1       1.0  1.0287919469267754e-08  0.9999999790242872  6.243255531425218e-08  1.0000
  Br  Br1       1.0  0.26635616609018653  0.26635610468294596  0.7336438658334663  1.0000
  Br  Br2       1.0  0.7336438588986479  0.7336438525420317  0.2663562086695241  1.0000
  Br  Br3       1.0  0.7336438281206015  0.2663561332279162  0.2663561470909727  1.0000
  Br  Br4       1.0  0.2663561846667043  0.7336438012733729  0.7336439248935959  1.0000
  Br  Br5       1.0  0.26635609071212635  0.7336438332310347  0.2663561841321516  1.0000
  Br  Br6       1.0  0.7336438219779543  0.26635619391298143  0.7336439101334788  1.0000
