data_image0
_chemical_formula_structural       Co2CBr6
_chemical_formula_sum              "Co2 C1 Br6"
_cell_length_a       6.96809357472853
_cell_length_b       6.968093446712895
_cell_length_c       6.968093599701327
_cell_angle_alpha    59.999999434283055
_cell_angle_beta     59.99999970930802
_cell_angle_gamma    59.99999938562484

_space_group_name_H-M_alt    "P 1"
_space_group_IT_number       1

loop_
  _space_group_symop_operation_xyz
  'x, y, z'

loop_
  _atom_site_type_symbol
  _atom_site_label
  _atom_site_symmetry_multiplicity
  _atom_site_fract_x
  _atom_site_fract_y
  _atom_site_fract_z
  _atom_site_occupancy
  Co  Co1       1.0  0.2500001417713801  0.2500000123760853  0.24999984542974704  1.0000
  Co  Co2       1.0  0.7499998984748856  0.7499994799541457  0.7500005877609511  1.0000
  C   C1        1.0  3.934627530157792e-09  0.9999999384823534  0.9999999383794059  1.0000
  Br  Br1       1.0  0.24201699798855636  0.2420172412612545  0.7579828359082976  1.0000
  Br  Br2       1.0  0.7579829630886847  0.7579829558854383  0.2420169802147792  1.0000
  Br  Br3       1.0  0.7579828640313947  0.24201729699020857  0.24201687881891892  1.0000
  Br  Br4       1.0  0.24201709624167364  0.7579829423400134  0.7579829725838771  1.0000
  Br  Br5       1.0  0.2420172152174962  0.7579829410652177  0.24201693989023004  1.0000
  Br  Br6       1.0  0.7579828203643634  0.2420172015944173  0.7579830083002288  1.0000
