data_image0
_chemical_formula_structural       Co2CdCl6
_chemical_formula_sum              "Co2 Cd1 Cl6"
_cell_length_a       6.54959828926282
_cell_length_b       6.549598267720767
_cell_length_c       6.5495982595198905
_cell_angle_alpha    60.00000011196127
_cell_angle_beta     60.00000020119875
_cell_angle_gamma    59.99999940617263

_space_group_name_H-M_alt    "P 1"
_space_group_IT_number       1

loop_
  _space_group_symop_operation_xyz
  'x, y, z'

loop_
  _atom_site_type_symbol
  _atom_site_label
  _atom_site_symmetry_multiplicity
  _atom_site_fract_x
  _atom_site_fract_y
  _atom_site_fract_z
  _atom_site_occupancy
  Co  Co1       1.0  0.2500001264685177  0.2500000442148786  0.24999992408541588  1.0000
  Co  Co2       1.0  0.7500000082996084  0.7500002093127602  0.7499999454309482  1.0000
  Cd  Cd1       1.0  2.2207212690654575e-08  0.9999999756905953  0.9999999918902288  1.0000
  Cl  Cl1       1.0  0.2642605800935947  0.2642604609401538  0.735739458423764  1.0000
  Cl  Cl2       1.0  0.7357394233442072  0.7357394990046779  0.26426049987745803  1.0000
  Cl  Cl3       1.0  0.7357394377336284  0.26426047239512274  0.26426057732836217  1.0000
  Cl  Cl4       1.0  0.2642604554717689  0.7357394744600304  0.73573952966214  1.0000
  Cl  Cl5       1.0  0.2642604975486173  0.7357394479944634  0.26426052457425053  1.0000
  Cl  Cl6       1.0  0.735739448904603  0.264260418452659  0.7357395440847745  1.0000
