data_image0
_chemical_formula_structural       Co2CI6
_chemical_formula_sum              "Co2 C1 I6"
_cell_length_a       7.3944318066327765
_cell_length_b       7.394431855687162
_cell_length_c       7.394431859875868
_cell_angle_alpha    59.99999991623524
_cell_angle_beta     59.999998976193474
_cell_angle_gamma    60.0000006252629

_space_group_name_H-M_alt    "P 1"
_space_group_IT_number       1

loop_
  _space_group_symop_operation_xyz
  'x, y, z'

loop_
  _atom_site_type_symbol
  _atom_site_label
  _atom_site_symmetry_multiplicity
  _atom_site_fract_x
  _atom_site_fract_y
  _atom_site_fract_z
  _atom_site_occupancy
  Co  Co1       1.0  0.2500000265236268  0.2499998180147123  0.25000003961807765  1.0000
  Co  Co2       1.0  0.7499999722382921  0.7500000055943413  0.7500001212386701  1.0000
  C   C1        1.0  2.6792503182017497e-10  1.3250455410400341e-08  8.116868146129e-09  1.0000
  I   I1        1.0  0.2513881983144856  0.2513882250444068  0.7486117934830764  1.0000
  I   I2        1.0  0.7486117257079211  0.7486118602611397  0.2513881697627725  1.0000
  I   I3        1.0  0.7486118049224508  0.2513882451564896  0.2513882129628267  1.0000
  I   I4        1.0  0.2513882306352988  0.7486118053666124  0.7486117254302618  1.0000
  I   I5        1.0  0.25138825927984587  0.7486118108822877  0.25138820427667846  1.0000
  I   I6        1.0  0.7486117841020618  0.25138821148359686  0.7486117239974056  1.0000
