data_image0
_chemical_formula_structural       Co2CrCl6
_chemical_formula_sum              "Co2 Cr1 Cl6"
_cell_length_a       6.516805108401098
_cell_length_b       6.516805206495878
_cell_length_c       6.516805016137978
_cell_angle_alpha    60.0000010783015
_cell_angle_beta     60.00000181098567
_cell_angle_gamma    60.00000046597917

_space_group_name_H-M_alt    "P 1"
_space_group_IT_number       1

loop_
  _space_group_symop_operation_xyz
  'x, y, z'

loop_
  _atom_site_type_symbol
  _atom_site_label
  _atom_site_symmetry_multiplicity
  _atom_site_fract_x
  _atom_site_fract_y
  _atom_site_fract_z
  _atom_site_occupancy
  Co  Co1       1.0  0.2500000040324844  0.25000007995935974  0.25000002703208746  1.0000
  Co  Co2       1.0  0.7500000597817665  0.7499999692496754  0.7499998196861987  1.0000
  Cr  Cr1       1.0  6.980042086262563e-09  5.6380918537129574e-09  0.9999999583975647  1.0000
  Cl  Cl1       1.0  0.2475847755717476  0.2475848473576568  0.7524151596254338  1.0000
  Cl  Cl2       1.0  0.7524151632803523  0.7524151886958311  0.2475849249460709  1.0000
  Cl  Cl3       1.0  0.7524152089370514  0.24758473762307176  0.24758479088830648  1.0000
  Cl  Cl4       1.0  0.24758483120101313  0.7524151593574853  0.7524152634728654  1.0000
  Cl  Cl5       1.0  0.2475847163431833  0.7524152176585367  0.24758478326541453  1.0000
  Cl  Cl6       1.0  0.752415231279281  0.24758479208385634  0.7524152594381441  1.0000
