data_image0
_chemical_formula_structural       Co2CrF6
_chemical_formula_sum              "Co2 Cr1 F6"
_cell_length_a       5.261284000995434
_cell_length_b       5.261284103238436
_cell_length_c       5.261284106781072
_cell_angle_alpha    60.00000007815793
_cell_angle_beta     59.99999994980711
_cell_angle_gamma    60.00000046369823

_space_group_name_H-M_alt    "P 1"
_space_group_IT_number       1

loop_
  _space_group_symop_operation_xyz
  'x, y, z'

loop_
  _atom_site_type_symbol
  _atom_site_label
  _atom_site_symmetry_multiplicity
  _atom_site_fract_x
  _atom_site_fract_y
  _atom_site_fract_z
  _atom_site_occupancy
  Co  Co1       1.0  0.24999989488183513  0.24999999868147707  0.2500000330180404  1.0000
  Co  Co2       1.0  0.7500000043850211  0.7500000705354398  0.7499999684625442  1.0000
  Cr  Cr1       1.0  0.9999999820429059  2.0950596040024296e-08  0.9999999966025723  1.0000
  F   F1        1.0  0.252107680775947  0.2521076117603625  0.7478923804154227  1.0000
  F   F2        1.0  0.7478923271197122  0.7478923620149504  0.25210763157765315  1.0000
  F   F3        1.0  0.7478923840785267  0.25210761500901446  0.2521076796809854  1.0000
  F   F4        1.0  0.2521076816784453  0.7478923168651063  0.747892356643534  1.0000
  F   F5        1.0  0.2521076404347589  0.7478923523703275  0.2521076390795838  1.0000
  F   F6        1.0  0.7478923780122262  0.2521076819289296  0.7478923240711204  1.0000
