data_image0
_chemical_formula_structural       Co2CrBr6
_chemical_formula_sum              "Co2 Cr1 Br6"
_cell_length_a       6.962089318402432
_cell_length_b       6.96208933381732
_cell_length_c       6.962089388542877
_cell_angle_alpha    59.999999268229104
_cell_angle_beta     60.00000028638672
_cell_angle_gamma    60.000001011081665

_space_group_name_H-M_alt    "P 1"
_space_group_IT_number       1

loop_
  _space_group_symop_operation_xyz
  'x, y, z'

loop_
  _atom_site_type_symbol
  _atom_site_label
  _atom_site_symmetry_multiplicity
  _atom_site_fract_x
  _atom_site_fract_y
  _atom_site_fract_z
  _atom_site_occupancy
  Co  Co1       1.0  0.2500000396069226  0.24999999641875473  0.2500000175618424  1.0000
  Co  Co2       1.0  0.7499999630142832  0.7500001581358935  0.750000013112894  1.0000
  Cr  Cr1       1.0  0.9999999781369661  1.5832464860685462e-08  3.74876944254993e-08  1.0000
  Br  Br1       1.0  0.24607268405675015  0.24607262280289388  0.7539273599816848  1.0000
  Br  Br2       1.0  0.7539273326407162  0.7539273153747276  0.24607266124445343  1.0000
  Br  Br3       1.0  0.753927299745719  0.24607262164225122  0.2460727135553198  1.0000
  Br  Br4       1.0  0.24607271149030324  0.7539273130170452  0.7539272345977801  1.0000
  Br  Br5       1.0  0.24607266146623655  0.75392729933049  0.2460727140799841  1.0000
  Br  Br6       1.0  0.7539273227298717  0.24607266171624836  0.7539272458901553  1.0000
