data_image0
_chemical_formula_structural       Co2CI6
_chemical_formula_sum              "Co2 C1 I6"
_cell_length_a       7.3937114837515345
_cell_length_b       7.393711197667149
_cell_length_c       7.393711314668993
_cell_angle_alpha    59.99999996329756
_cell_angle_beta     60.000000442599294
_cell_angle_gamma    60.00000032641523

_space_group_name_H-M_alt    "P 1"
_space_group_IT_number       1

loop_
  _space_group_symop_operation_xyz
  'x, y, z'

loop_
  _atom_site_type_symbol
  _atom_site_label
  _atom_site_symmetry_multiplicity
  _atom_site_fract_x
  _atom_site_fract_y
  _atom_site_fract_z
  _atom_site_occupancy
  Co  Co1       1.0  0.25000002236344754  0.25000005815536097  0.2499997589051418  1.0000
  Co  Co2       1.0  0.7499999091551338  0.7499998845841197  0.7499999807617723  1.0000
  C   C1        1.0  1.2967541557279366e-08  0.9999999751529745  0.9999999842997301  1.0000
  I   I1        1.0  0.2514120252741413  0.2514120765731601  0.7485880488584135  1.0000
  I   I2        1.0  0.7485879623233381  0.7485879556156162  0.25141207383715214  1.0000
  I   I3        1.0  0.7485880132352716  0.25141202703394655  0.25141207553191985  1.0000
  I   I4        1.0  0.25141209275626786  0.7485878842326398  0.7485880146151915  1.0000
  I   I5        1.0  0.25141208912788543  0.7485879935393186  0.2514120424637857  1.0000
  I   I6        1.0  0.7485878719498471  0.2514121463199013  0.7485880112539165  1.0000
