data_image0
_chemical_formula_structural       Co2CrI6
_chemical_formula_sum              "Co2 Cr1 I6"
_cell_length_a       7.5376840771516775
_cell_length_b       7.537684071084531
_cell_length_c       7.537684174542209
_cell_angle_alpha    60.00000005455134
_cell_angle_beta     60.00000006684931
_cell_angle_gamma    60.00000113877048

_space_group_name_H-M_alt    "P 1"
_space_group_IT_number       1

loop_
  _space_group_symop_operation_xyz
  'x, y, z'

loop_
  _atom_site_type_symbol
  _atom_site_label
  _atom_site_symmetry_multiplicity
  _atom_site_fract_x
  _atom_site_fract_y
  _atom_site_fract_z
  _atom_site_occupancy
  Co  Co1       1.0  0.2500000245162643  0.2500000172619627  0.24999991636095556  1.0000
  Co  Co2       1.0  0.7500000313219144  0.7499999900423816  0.7500000358881918  1.0000
  Cr  Cr1       1.0  1.4065908932145333e-08  0.9999999853765382  4.405880123177115e-08  1.0000
  I   I1        1.0  0.24683319344997243  0.24683319469845477  0.7531668270939352  1.0000
  I   I2        1.0  0.7531667935454702  0.7531668077314013  0.24683318987383973  1.0000
  I   I3        1.0  0.7531667671612648  0.24683322447646586  0.24683323544995933  1.0000
  I   I4        1.0  0.24683322427592372  0.7531667324581746  0.753166772857867  1.0000
  I   I5        1.0  0.24683321462768254  0.753166790603285  0.24683323401483973  1.0000
  I   I6        1.0  0.7531667343170602  0.24683325244729876  0.7531667511545705  1.0000
