data_image0
_chemical_formula_structural       Co2CO6
_chemical_formula_sum              "Co2 C1 O6"
_cell_length_a       4.696218760333917
_cell_length_b       4.696219147284377
_cell_length_c       4.6962184630572645
_cell_angle_alpha    60.000003819810544
_cell_angle_beta     60.00000349616301
_cell_angle_gamma    60.00000297021966

_space_group_name_H-M_alt    "P 1"
_space_group_IT_number       1

loop_
  _space_group_symop_operation_xyz
  'x, y, z'

loop_
  _atom_site_type_symbol
  _atom_site_label
  _atom_site_symmetry_multiplicity
  _atom_site_fract_x
  _atom_site_fract_y
  _atom_site_fract_z
  _atom_site_occupancy
  Co  Co1       1.0  0.2500008655655165  0.2499992320340477  0.24999984942502748  1.0000
  Co  Co2       1.0  0.750000139633594  0.7499999702240518  0.7500003190154954  1.0000
  C   C1        1.0  1.5202297451862604e-07  0.9999999791364969  0.9999998151753876  1.0000
  O   O1        1.0  0.2288085633151805  0.22880902391462615  0.7711911276430479  1.0000
  O   O2        1.0  0.7711909336834267  0.7711913466997016  0.22880862727143214  1.0000
  O   O3        1.0  0.7711909007014863  0.22880878044430458  0.2288090398451497  1.0000
  O   O4        1.0  0.2288087512307277  0.7711912876492134  0.771191121045097  1.0000
  O   O5        1.0  0.22880877344053807  0.7711914635785175  0.22880878187383044  1.0000
  O   O6        1.0  0.7711908393938112  0.22880893572311983  0.7711912947130982  1.0000
