data_image0
_chemical_formula_structural       Co2FeCl6
_chemical_formula_sum              "Co2 Fe1 Cl6"
_cell_length_a       6.454078285777718
_cell_length_b       6.4540782623570605
_cell_length_c       6.45407831266129
_cell_angle_alpha    59.99999951990197
_cell_angle_beta     59.99999994680353
_cell_angle_gamma    59.99999999711581

_space_group_name_H-M_alt    "P 1"
_space_group_IT_number       1

loop_
  _space_group_symop_operation_xyz
  'x, y, z'

loop_
  _atom_site_type_symbol
  _atom_site_label
  _atom_site_symmetry_multiplicity
  _atom_site_fract_x
  _atom_site_fract_y
  _atom_site_fract_z
  _atom_site_occupancy
  Co  Co1       1.0  0.2500004429603005  0.24999999140027387  0.24999965917549077  1.0000
  Co  Co2       1.0  0.7499998793453333  0.7500000557988806  0.7499999667285845  1.0000
  Fe  Fe1       1.0  0.9999999998574268  0.9999998823469761  7.749069368901182e-08  1.0000
  Cl  Cl1       1.0  0.24568680363617953  0.24568678077247405  0.7543132272699994  1.0000
  Cl  Cl2       1.0  0.7543132210459537  0.754313268324308  0.24568680989635733  1.0000
  Cl  Cl3       1.0  0.7543130495648023  0.24568681362129097  0.2456868089919606  1.0000
  Cl  Cl4       1.0  0.24568678603375893  0.7543131747513492  0.7543133437818056  1.0000
  Cl  Cl5       1.0  0.24568676001551953  0.754313272974616  0.24568673840446092  1.0000
  Cl  Cl6       1.0  0.7543130609260222  0.245686764736389  0.7543133582934346  1.0000
