data_image0
_chemical_formula_structural       Co2FeF6
_chemical_formula_sum              "Co2 Fe1 F6"
_cell_length_a       5.2397655066880136
_cell_length_b       5.239765579620141
_cell_length_c       5.239765584210747
_cell_angle_alpha    59.99999868672951
_cell_angle_beta     59.99999909716121
_cell_angle_gamma    59.99999886596513

_space_group_name_H-M_alt    "P 1"
_space_group_IT_number       1

loop_
  _space_group_symop_operation_xyz
  'x, y, z'

loop_
  _atom_site_type_symbol
  _atom_site_label
  _atom_site_symmetry_multiplicity
  _atom_site_fract_x
  _atom_site_fract_y
  _atom_site_fract_z
  _atom_site_occupancy
  Co  Co1       1.0  0.25000005230364153  0.24999997204114313  0.24999995749943876  1.0000
  Co  Co2       1.0  0.7500001811977779  0.7499998366516923  0.7500000413184507  1.0000
  Fe  Fe1       1.0  1.8118647196021177e-08  5.1422887057821305e-08  0.9999999843140556  1.0000
  F   F1        1.0  0.25467648637044216  0.25467670415618804  0.7453233510449176  1.0000
  F   F2        1.0  0.7453234900473424  0.745323373338107  0.25467656557476465  1.0000
  F   F3        1.0  0.7453233997836132  0.2546766060747521  0.25467656251903836  1.0000
  F   F4        1.0  0.2546764628425093  0.7453234293462719  0.7453234473009699  1.0000
  F   F5        1.0  0.2546765664696705  0.7453234287108996  0.2546765741711174  1.0000
  F   F6        1.0  0.745323332573296  0.2546766230719509  0.7453235046836714  1.0000
