data_image0
_chemical_formula_structural       Co2FeI6
_chemical_formula_sum              "Co2 Fe1 I6"
_cell_length_a       7.51952536427746
_cell_length_b       7.519525495302094
_cell_length_c       7.519524896500858
_cell_angle_alpha    60.00000713611807
_cell_angle_beta     60.000008589504766
_cell_angle_gamma    60.00000348531273

_space_group_name_H-M_alt    "P 1"
_space_group_IT_number       1

loop_
  _space_group_symop_operation_xyz
  'x, y, z'

loop_
  _atom_site_type_symbol
  _atom_site_label
  _atom_site_symmetry_multiplicity
  _atom_site_fract_x
  _atom_site_fract_y
  _atom_site_fract_z
  _atom_site_occupancy
  Co  Co1       1.0  0.2500000613187816  0.24999932322143675  0.2500003141804781  1.0000
  Co  Co2       1.0  0.7500004336330722  0.7500001505642606  0.7500000450924116  1.0000
  Fe  Fe1       1.0  0.999999958786203  4.071881731048564e-08  0.9999999031668877  1.0000
  I   I1        1.0  0.22487026935799573  0.2248702975850651  0.7751297809604859  1.0000
  I   I2        1.0  0.7751295109526587  0.7751298781930787  0.2248702707871529  1.0000
  I   I3        1.0  0.7751296957001086  0.22487020416800532  0.22487039364104935  1.0000
  I   I4        1.0  0.22487002112388293  0.7751299455500901  0.7751294954200255  1.0000
  I   I5        1.0  0.22487016312564279  0.7751298577552767  0.22487034065206216  1.0000
  I   I6        1.0  0.7751298326671127  0.2248702382139722  0.7751294477679073  1.0000
