data_image0
_chemical_formula_structural       Co2FeBr6
_chemical_formula_sum              "Co2 Fe1 Br6"
_cell_length_a       7.081002327526047
_cell_length_b       7.081002433940431
_cell_length_c       7.081002584109336
_cell_angle_alpha    60.00000009378608
_cell_angle_beta     59.99999960711614
_cell_angle_gamma    60.000000222854034

_space_group_name_H-M_alt    "P 1"
_space_group_IT_number       1

loop_
  _space_group_symop_operation_xyz
  'x, y, z'

loop_
  _atom_site_type_symbol
  _atom_site_label
  _atom_site_symmetry_multiplicity
  _atom_site_fract_x
  _atom_site_fract_y
  _atom_site_fract_z
  _atom_site_occupancy
  Co  Co1       1.0  0.2500000279220902  0.2500001769407072  0.24999996244159423  1.0000
  Co  Co2       1.0  0.7499999238023006  0.7499999686953804  0.7500001170328001  1.0000
  Fe  Fe1       1.0  2.8956963168139382e-08  2.075544862035779e-08  0.9999999313646831  1.0000
  Br  Br1       1.0  0.22631903473450254  0.22631894784021683  0.7736809741528617  1.0000
  Br  Br2       1.0  0.7736810229064877  0.7736810023487258  0.22631895661137758  1.0000
  Br  Br3       1.0  0.7736809399643346  0.22631903437250256  0.2263190124229427  1.0000
  Br  Br4       1.0  0.22631904179106313  0.7736809331126479  0.7736810281330643  1.0000
  Br  Br5       1.0  0.22631905611110587  0.7736808866037788  0.22631902536620088  1.0000
  Br  Br6       1.0  0.7736809267323966  0.22631902380388708  0.7736810177643664  1.0000
