data_image0
_chemical_formula_structural       Co2GeF6
_chemical_formula_sum              "Co2 Ge1 F6"
_cell_length_a       5.30429951595918
_cell_length_b       5.304299320428613
_cell_length_c       5.304299531849642
_cell_angle_alpha    60.000000675003044
_cell_angle_beta     59.999999422986974
_cell_angle_gamma    60.00000137508669

_space_group_name_H-M_alt    "P 1"
_space_group_IT_number       1

loop_
  _space_group_symop_operation_xyz
  'x, y, z'

loop_
  _atom_site_type_symbol
  _atom_site_label
  _atom_site_symmetry_multiplicity
  _atom_site_fract_x
  _atom_site_fract_y
  _atom_site_fract_z
  _atom_site_occupancy
  Co  Co1       1.0  0.2500000066696322  0.2500000526893435  0.2499999984607385  1.0000
  Co  Co2       1.0  0.7499999463711973  0.7499999479520891  0.7500000184874598  1.0000
  Ge  Ge1       1.0  2.601357510253565e-08  0.9999999676744726  4.0861236855174e-08  1.0000
  F   F1        1.0  0.24197845927347053  0.24197846168248738  0.7580215532565411  1.0000
  F   F2        1.0  0.7580215474205597  0.7580215412679141  0.2419784922684642  1.0000
  F   F3        1.0  0.7580215590098095  0.24197846096679404  0.24197842866951322  1.0000
  F   F4        1.0  0.24197851160704745  0.758021500422213  0.7580215434610936  1.0000
  F   F5        1.0  0.24197844614258948  0.7580215801869216  0.24197842382001586  1.0000
  F   F6        1.0  0.7580214923841838  0.2419784966503985  0.7580215019588501  1.0000
