data_image0
_chemical_formula_structural       Co2GeSe6
_chemical_formula_sum              "Co2 Ge1 Se6"
_cell_length_a       6.618718936036705
_cell_length_b       6.61871888759759
_cell_length_c       6.618718822140599
_cell_angle_alpha    59.99999977415704
_cell_angle_beta     59.99999941054225
_cell_angle_gamma    59.9999985035637

_space_group_name_H-M_alt    "P 1"
_space_group_IT_number       1

loop_
  _space_group_symop_operation_xyz
  'x, y, z'

loop_
  _atom_site_type_symbol
  _atom_site_label
  _atom_site_symmetry_multiplicity
  _atom_site_fract_x
  _atom_site_fract_y
  _atom_site_fract_z
  _atom_site_occupancy
  Co  Co1       1.0  0.25000155908137295  0.24999863646465567  0.24999989278777815  1.0000
  Co  Co2       1.0  0.7499995674884165  0.7500012996846569  0.7499999626493262  1.0000
  Ge  Ge1       1.0  0.9999999399973386  0.9999999444872241  2.1496925370469258e-08  1.0000
  Se  Se1       1.0  0.29589042426360423  0.2958892895558971  0.7041101978629593  1.0000
  Se  Se2       1.0  0.7041094772231429  0.7041109408111494  0.2958895624753678  1.0000
  Se  Se3       1.0  0.7041098594843979  0.29588928640451756  0.29589024086424776  1.0000
  Se  Se4       1.0  0.29588968429331197  0.7041107034071677  0.7041098397584123  1.0000
  Se  Se5       1.0  0.2958898619409227  0.7041106819737554  0.2958895678939095  1.0000
  Se  Se6       1.0  0.7041096252356503  0.2958892264191912  0.7041107192275333  1.0000
