data_image0
_chemical_formula_structural       Co2GeS6
_chemical_formula_sum              "Co2 Ge1 S6"
_cell_length_a       6.381280831560022
_cell_length_b       6.381280748714775
_cell_length_c       6.38128069573621
_cell_angle_alpha    60.00000127823667
_cell_angle_beta     60.00000364437177
_cell_angle_gamma    60.00000398974974

_space_group_name_H-M_alt    "P 1"
_space_group_IT_number       1

loop_
  _space_group_symop_operation_xyz
  'x, y, z'

loop_
  _atom_site_type_symbol
  _atom_site_label
  _atom_site_symmetry_multiplicity
  _atom_site_fract_x
  _atom_site_fract_y
  _atom_site_fract_z
  _atom_site_occupancy
  Co  Co1       1.0  0.24999946362678577  0.250000345607169  0.24999987907561994  1.0000
  Co  Co2       1.0  0.7500003988404692  0.7499996760538367  0.7500001253799516  1.0000
  Ge  Ge1       1.0  0.99999986011874  2.878915758014118e-08  0.9999999583868683  1.0000
  S   S1        1.0  0.25740309184129834  0.2574036863552165  0.7425966928949695  1.0000
  S   S2        1.0  0.7425969960686644  0.7425961529744354  0.2574030471069788  1.0000
  S   S3        1.0  0.7425971939556844  0.25740374094574936  0.2574031601608449  1.0000
  S   S4        1.0  0.2574033290555951  0.7425963402128807  0.7425968164956297  1.0000
  S   S5        1.0  0.2574030669987838  0.7425965838318019  0.2574037089051563  1.0000
  S   S6        1.0  0.7425965447867535  0.25740345702197026  0.7425966150157468  1.0000
