data_image0
_chemical_formula_structural       Co2GeBr6
_chemical_formula_sum              "Co2 Ge1 Br6"
_cell_length_a       7.042206198144314
_cell_length_b       7.042206166315605
_cell_length_c       7.0422059998832465
_cell_angle_alpha    59.99999959482636
_cell_angle_beta     59.9999999604325
_cell_angle_gamma    59.99999981725651

_space_group_name_H-M_alt    "P 1"
_space_group_IT_number       1

loop_
  _space_group_symop_operation_xyz
  'x, y, z'

loop_
  _atom_site_type_symbol
  _atom_site_label
  _atom_site_symmetry_multiplicity
  _atom_site_fract_x
  _atom_site_fract_y
  _atom_site_fract_z
  _atom_site_occupancy
  Co  Co1       1.0  0.24999996849848824  0.25000011931585897  0.24999991368389865  1.0000
  Co  Co2       1.0  0.7500001003937983  0.7499999109861739  0.7500000942847663  1.0000
  Ge  Ge1       1.0  0.999999985922008  0.9999999930434021  2.32973813308917e-08  1.0000
  Br  Br1       1.0  0.24722989625118127  0.24722993809141253  0.7527700589333643  1.0000
  Br  Br2       1.0  0.7527701102335829  0.7527700974280697  0.2472298555095135  1.0000
  Br  Br3       1.0  0.7527701193421746  0.247229899405634  0.2472299105649287  1.0000
  Br  Br4       1.0  0.24722984638350232  0.7527700665478708  0.7527701257809328  1.0000
  Br  Br5       1.0  0.24722987135965482  0.752770109756911  0.24722990867479944  1.0000
  Br  Br6       1.0  0.7527701041046733  0.24722986141404193  0.7527701130929645  1.0000
