data_image0
_chemical_formula_structural       Co2GeCl6
_chemical_formula_sum              "Co2 Ge1 Cl6"
_cell_length_a       6.6082105603437
_cell_length_b       6.608210699318931
_cell_length_c       6.60821060832339
_cell_angle_alpha    60.000001118599535
_cell_angle_beta     60.000000515576396
_cell_angle_gamma    60.00000104556161

_space_group_name_H-M_alt    "P 1"
_space_group_IT_number       1

loop_
  _space_group_symop_operation_xyz
  'x, y, z'

loop_
  _atom_site_type_symbol
  _atom_site_label
  _atom_site_symmetry_multiplicity
  _atom_site_fract_x
  _atom_site_fract_y
  _atom_site_fract_z
  _atom_site_occupancy
  Co  Co1       1.0  0.24999982708291696  0.25000001535030936  0.25000022610815953  1.0000
  Co  Co2       1.0  0.7500000611098642  0.7500001516929212  0.7499997136193864  1.0000
  Ge  Ge1       1.0  2.4375404803598833e-08  0.9999999740528432  2.6511448293784565e-08  1.0000
  Cl  Cl1       1.0  0.24522493756522637  0.24522491977729086  0.7547749834158469  1.0000
  Cl  Cl2       1.0  0.7547751497615123  0.7547750063280553  0.24522505136384126  1.0000
  Cl  Cl3       1.0  0.7547750907962236  0.24522484661157548  0.24522499588877344  1.0000
  Cl  Cl4       1.0  0.24522497711561175  0.7547750591067186  0.754775030039782  1.0000
  Cl  Cl5       1.0  0.2452248738966173  0.754775084532165  0.24522496534893443  1.0000
  Cl  Cl6       1.0  0.7547750531290885  0.24522493980170285  0.7547750111841401  1.0000
