data_image0
_chemical_formula_structural       Co2GeI6
_chemical_formula_sum              "Co2 Ge1 I6"
_cell_length_a       7.598675621234594
_cell_length_b       7.598675620729971
_cell_length_c       7.59867579122264
_cell_angle_alpha    59.99999992947127
_cell_angle_beta     59.99999960263218
_cell_angle_gamma    59.999999889165295

_space_group_name_H-M_alt    "P 1"
_space_group_IT_number       1

loop_
  _space_group_symop_operation_xyz
  'x, y, z'

loop_
  _atom_site_type_symbol
  _atom_site_label
  _atom_site_symmetry_multiplicity
  _atom_site_fract_x
  _atom_site_fract_y
  _atom_site_fract_z
  _atom_site_occupancy
  Co  Co1       1.0  0.2500000592916491  0.2500000328817766  0.24999989323840688  1.0000
  Co  Co2       1.0  0.7499999997148497  0.7499999584198368  0.7499999376094225  1.0000
  Ge  Ge1       1.0  0.9999999874744203  1.9341447207031688e-08  0.9999999702716909  1.0000
  I   I1        1.0  0.2606970447226605  0.26069699435922766  0.7393029717684677  1.0000
  I   I2        1.0  0.7393029370603886  0.7393029824363014  0.26069707602656916  1.0000
  I   I3        1.0  0.7393029590361943  0.2606970411558159  0.2606970586310298  1.0000
  I   I4        1.0  0.26069706405279963  0.7393029211336277  0.7393030034004716  1.0000
  I   I5        1.0  0.260697021288736  0.7393029487329825  0.2606970946466011  1.0000
  I   I6        1.0  0.7393029293489077  0.26069709414582537  0.7393029962163628  1.0000
