data_image0
_chemical_formula_structural       Co2GeO6
_chemical_formula_sum              "Co2 Ge1 O6"
_cell_length_a       5.074525940395016
_cell_length_b       5.074526040056059
_cell_length_c       5.07452564909464
_cell_angle_alpha    59.99999657733223
_cell_angle_beta     59.999997032533216
_cell_angle_gamma    59.999997791112705

_space_group_name_H-M_alt    "P 1"
_space_group_IT_number       1

loop_
  _space_group_symop_operation_xyz
  'x, y, z'

loop_
  _atom_site_type_symbol
  _atom_site_label
  _atom_site_symmetry_multiplicity
  _atom_site_fract_x
  _atom_site_fract_y
  _atom_site_fract_z
  _atom_site_occupancy
  Co  Co1       1.0  0.2500015402868754  0.249999183914773  0.2499995495253319  1.0000
  Co  Co2       1.0  0.7499991337265952  0.7500015002562274  0.750000931329032  1.0000
  Ge  Ge1       1.0  0.9999999848524302  3.8616253484329705e-08  0.9999999981187946  1.0000
  O   O1        1.0  0.2553912658371639  0.25539047581991625  0.7446090335481078  1.0000
  O   O2        1.0  0.7446084910498403  0.7446096966858134  0.2553903290185684  1.0000
  O   O3        1.0  0.7446088104322416  0.25539075878912537  0.25539104551210096  1.0000
  O   O4        1.0  0.2553908778985861  0.7446089913512992  0.7446091359679522  1.0000
  O   O5        1.0  0.2553912591405046  0.744609230274046  0.25539052812353236  1.0000
  O   O6        1.0  0.7446086550668617  0.25539016990658947  0.7446094572459456  1.0000
