data_image0
_chemical_formula_structural       Co2GeTe6
_chemical_formula_sum              "Co2 Ge1 Te6"
_cell_length_a       7.22152510228743
_cell_length_b       7.221525269832058
_cell_length_c       7.221525383893645
_cell_angle_alpha    59.999999798569604
_cell_angle_beta     59.99999968589291
_cell_angle_gamma    59.99999926149843

_space_group_name_H-M_alt    "P 1"
_space_group_IT_number       1

loop_
  _space_group_symop_operation_xyz
  'x, y, z'

loop_
  _atom_site_type_symbol
  _atom_site_label
  _atom_site_symmetry_multiplicity
  _atom_site_fract_x
  _atom_site_fract_y
  _atom_site_fract_z
  _atom_site_occupancy
  Co  Co1       1.0  0.2499998484614019  0.2500002297343358  0.2499999076929205  1.0000
  Co  Co2       1.0  0.7499999311687716  0.7499999395868011  0.7499998565283681  1.0000
  Ge  Ge1       1.0  0.9999999945574148  0.9999999779524648  9.590813171632386e-09  1.0000
  Te  Te1       1.0  0.2736774433050278  0.2736774049889311  0.7263225419927811  1.0000
  Te  Te2       1.0  0.7263225663857658  0.7263226066075272  0.27367749070531633  1.0000
  Te  Te3       1.0  0.726322659062105  0.27367741698631687  0.2736774229647732  1.0000
  Te  Te4       1.0  0.27367751542249863  0.7263224216217851  0.7263227259952666  1.0000
  Te  Te5       1.0  0.27367743379241877  0.7263224996578498  0.27367749340862585  1.0000
  Te  Te6       1.0  0.7263226087340877  0.27367749497896554  0.7263225645854127  1.0000
