data_image0
_chemical_formula_structural       Co2MnF6
_chemical_formula_sum              "Co2 Mn1 F6"
_cell_length_a       5.295045991051777
_cell_length_b       5.295046491300218
_cell_length_c       5.295046326708707
_cell_angle_alpha    60.00000410768311
_cell_angle_beta     59.99999979407881
_cell_angle_gamma    60.000000792423286

_space_group_name_H-M_alt    "P 1"
_space_group_IT_number       1

loop_
  _space_group_symop_operation_xyz
  'x, y, z'

loop_
  _atom_site_type_symbol
  _atom_site_label
  _atom_site_symmetry_multiplicity
  _atom_site_fract_x
  _atom_site_fract_y
  _atom_site_fract_z
  _atom_site_occupancy
  Co  Co1       1.0  0.24999946714420976  0.2500004082108442  0.249999921883993  1.0000
  Co  Co2       1.0  0.7500003478702454  0.7499997489378181  0.7500002743722175  1.0000
  Mn  Mn1       1.0  0.9999999929514084  0.9999999884349937  0.9999999639814161  1.0000
  F   F1        1.0  0.24882735961661084  0.2488274206522149  0.7511726198341767  1.0000
  F   F2        1.0  0.7511726206299127  0.7511724959443242  0.24882731757851415  1.0000
  F   F3        1.0  0.7511726403679518  0.24882747180830442  0.24882736351480056  1.0000
  F   F4        1.0  0.24882739126714667  0.7511725326822761  0.7511726137929259  1.0000
  F   F5        1.0  0.2488274590558022  0.7511725557434502  0.24882745259763453  1.0000
  F   F6        1.0  0.7511726772991821  0.24882737010509187  0.7511725324453015  1.0000
