data_image0
_chemical_formula_structural       Co2MnBr6
_chemical_formula_sum              "Co2 Mn1 Br6"
_cell_length_a       7.045708460570113
_cell_length_b       7.045708381597631
_cell_length_c       7.045708336400717
_cell_angle_alpha    59.99999960760387
_cell_angle_beta     59.99999936320172
_cell_angle_gamma    60.00000224865205

_space_group_name_H-M_alt    "P 1"
_space_group_IT_number       1

loop_
  _space_group_symop_operation_xyz
  'x, y, z'

loop_
  _atom_site_type_symbol
  _atom_site_label
  _atom_site_symmetry_multiplicity
  _atom_site_fract_x
  _atom_site_fract_y
  _atom_site_fract_z
  _atom_site_occupancy
  Co  Co1       1.0  0.2499996242159062  0.25000005034030265  0.2500002361728005  1.0000
  Co  Co2       1.0  0.7500001279856621  0.7500003822128418  0.7499998616442792  1.0000
  Mn  Mn1       1.0  1.700224706492624e-08  0.9999999391600282  5.314354418441937e-08  1.0000
  Br  Br1       1.0  0.23526063733711378  0.23526060593961934  0.7647393273724541  1.0000
  Br  Br2       1.0  0.7647395221908333  0.764739292960067  0.23526054548951014  1.0000
  Br  Br3       1.0  0.7647394654955205  0.23526048041902725  0.23526070565922308  1.0000
  Br  Br4       1.0  0.23526060025324974  0.7647393802383875  0.7647393382419413  1.0000
  Br  Br5       1.0  0.23526060240847108  0.7647393883800104  0.23526062891176977  1.0000
  Br  Br6       1.0  0.7647394021226557  0.23526047401568786  0.7647392999600962  1.0000
