data_image0
_chemical_formula_structural       Co2MnI6
_chemical_formula_sum              "Co2 Mn1 I6"
_cell_length_a       7.500408516660717
_cell_length_b       7.500408587091077
_cell_length_c       7.500408700311531
_cell_angle_alpha    60.00000130872621
_cell_angle_beta     60.00000059230714
_cell_angle_gamma    60.00000027159466

_space_group_name_H-M_alt    "P 1"
_space_group_IT_number       1

loop_
  _space_group_symop_operation_xyz
  'x, y, z'

loop_
  _atom_site_type_symbol
  _atom_site_label
  _atom_site_symmetry_multiplicity
  _atom_site_fract_x
  _atom_site_fract_y
  _atom_site_fract_z
  _atom_site_occupancy
  Co  Co1       1.0  0.2500000237486554  0.24999999086699776  0.24999993474045124  1.0000
  Co  Co2       1.0  0.7500000589911755  0.7500000232210271  0.7500000516908685  1.0000
  Mn  Mn1       1.0  0.999999943520837  0.9999999477470685  1.7969254982100116e-07  1.0000
  I   I1        1.0  0.24233933534474233  0.2423393199891021  0.7576606635053681  1.0000
  I   I2        1.0  0.7576606737463951  0.7576607349215263  0.24233923934444548  1.0000
  I   I3        1.0  0.7576607149310571  0.24233927806215366  0.24233928227233906  1.0000
  I   I4        1.0  0.24233926307630727  0.7576606576464692  0.7576606717216694  1.0000
  I   I5        1.0  0.2423393353330424  0.7576607330927843  0.24233930213336036  1.0000
  I   I6        1.0  0.7576606456892654  0.24233931365332415  0.7576606681637725  1.0000
