data_image0
_chemical_formula_structural       Co2MgBr6
_chemical_formula_sum              "Co2 Mg1 Br6"
_cell_length_a       6.956427674844959
_cell_length_b       6.95642763382147
_cell_length_c       6.956427510558416
_cell_angle_alpha    59.99999959472
_cell_angle_beta     59.99999983077946
_cell_angle_gamma    59.99999833724192

_space_group_name_H-M_alt    "P 1"
_space_group_IT_number       1

loop_
  _space_group_symop_operation_xyz
  'x, y, z'

loop_
  _atom_site_type_symbol
  _atom_site_label
  _atom_site_symmetry_multiplicity
  _atom_site_fract_x
  _atom_site_fract_y
  _atom_site_fract_z
  _atom_site_occupancy
  Co  Co1       1.0  0.2500001207324135  0.2500001402503363  0.2499998837685447  1.0000
  Co  Co2       1.0  0.750000073264795  0.7499999330663111  0.7500002193041452  1.0000
  Mg  Mg1       1.0  0.9999999913984073  1.5845351711744494e-08  0.9999999575650947  1.0000
  Br  Br1       1.0  0.26008019016998485  0.2600802533265959  0.7399197513542549  1.0000
  Br  Br2       1.0  0.7399197629081107  0.7399197161149773  0.2600801776733385  1.0000
  Br  Br3       1.0  0.7399196945926055  0.2600802901572323  0.26008016535637507  1.0000
  Br  Br4       1.0  0.26008018162643287  0.7399197056932606  0.7399197975214042  1.0000
  Br  Br5       1.0  0.26008029133339605  0.7399197040810882  0.26008022168877326  1.0000
  Br  Br6       1.0  0.7399196899803511  0.2600802354303756  0.7399198289376846  1.0000
