data_image0
_chemical_formula_structural       Co2MnCl6
_chemical_formula_sum              "Co2 Mn1 Cl6"
_cell_length_a       6.509161732734744
_cell_length_b       6.50916165349336
_cell_length_c       6.509161737517457
_cell_angle_alpha    59.99999972027063
_cell_angle_beta     60.00000034354252
_cell_angle_gamma    60.00000021703994

_space_group_name_H-M_alt    "P 1"
_space_group_IT_number       1

loop_
  _space_group_symop_operation_xyz
  'x, y, z'

loop_
  _atom_site_type_symbol
  _atom_site_label
  _atom_site_symmetry_multiplicity
  _atom_site_fract_x
  _atom_site_fract_y
  _atom_site_fract_z
  _atom_site_occupancy
  Co  Co1       1.0  0.24999997485479514  0.2500001136258504  0.2500000475651218  1.0000
  Co  Co2       1.0  0.7500001386667786  0.7499998422612801  0.7500000253182582  1.0000
  Mn  Mn1       1.0  0.9999999612587375  4.7039270734173154e-08  0.9999999221087815  1.0000
  Cl  Cl1       1.0  0.24758711726486782  0.24758719107117969  0.7524128041609598  1.0000
  Cl  Cl2       1.0  0.7524128461862748  0.7524127892763709  0.24758715485336996  1.0000
  Cl  Cl3       1.0  0.752412811819372  0.24758723149915562  0.2475871349728415  1.0000
  Cl  Cl4       1.0  0.24758714469575227  0.7524128335190826  0.7524128420171107  1.0000
  Cl  Cl5       1.0  0.24758718695318835  0.7524127543519422  0.24758719589210998  1.0000
  Cl  Cl6       1.0  0.752412819611086  0.2475871977720459  0.7524128708996453  1.0000
