data_image0
_chemical_formula_structural       Co2MgF6
_chemical_formula_sum              "Co2 Mg1 F6"
_cell_length_a       5.124196437415388
_cell_length_b       5.124196529194423
_cell_length_c       5.124196398385795
_cell_angle_alpha    60.0000006422377
_cell_angle_beta     60.00000091927813
_cell_angle_gamma    60.00000096966961

_space_group_name_H-M_alt    "P 1"
_space_group_IT_number       1

loop_
  _space_group_symop_operation_xyz
  'x, y, z'

loop_
  _atom_site_type_symbol
  _atom_site_label
  _atom_site_symmetry_multiplicity
  _atom_site_fract_x
  _atom_site_fract_y
  _atom_site_fract_z
  _atom_site_occupancy
  Co  Co1       1.0  0.2500000107525729  0.24999985091267668  0.2500000311731389  1.0000
  Co  Co2       1.0  0.7499997177970317  0.749999853893248  0.7500000416263837  1.0000
  Mg  Mg1       1.0  0.9999999908495967  7.170362327022806e-09  0.9999999990384949  1.0000
  F   F1        1.0  0.2544796421973476  0.25447946068303884  0.7455204907513707  1.0000
  F   F2        1.0  0.7455203781533637  0.7455206193718475  0.25447952173669014  1.0000
  F   F3        1.0  0.7455205437655908  0.2544796016002309  0.2544795055181395  1.0000
  F   F4        1.0  0.2544796956909103  0.7455204904052598  0.7455203953447764  1.0000
  F   F5        1.0  0.25447951959074117  0.7455204138951108  0.2544795828614368  1.0000
  F   F6        1.0  0.7455204835058045  0.25447970440170803  0.7455204366964701  1.0000
