data_image0
_chemical_formula_structural       Co2MgI6
_chemical_formula_sum              "Co2 Mg1 I6"
_cell_length_a       7.611948618368583
_cell_length_b       7.6119486890423484
_cell_length_c       7.611948636023501
_cell_angle_alpha    59.999999881036985
_cell_angle_beta     59.99999932748411
_cell_angle_gamma    59.999999359853966

_space_group_name_H-M_alt    "P 1"
_space_group_IT_number       1

loop_
  _space_group_symop_operation_xyz
  'x, y, z'

loop_
  _atom_site_type_symbol
  _atom_site_label
  _atom_site_symmetry_multiplicity
  _atom_site_fract_x
  _atom_site_fract_y
  _atom_site_fract_z
  _atom_site_occupancy
  Co  Co1       1.0  0.2500000120560797  0.24999995602002575  0.2500000065550393  1.0000
  Co  Co2       1.0  0.7499999912851377  0.7500000209128721  0.750000018229233  1.0000
  Mg  Mg1       1.0  0.99999998358952  0.9999999855192091  1.4131911510711773e-08  1.0000
  I   I1        1.0  0.26318861744403854  0.2631886315923529  0.7368113649281661  1.0000
  I   I2        1.0  0.736811381759036  0.7368114032637093  0.2631886027479421  1.0000
  I   I3        1.0  0.7368114023379985  0.26318860452210213  0.26318862371910634  1.0000
  I   I4        1.0  0.2631886475846068  0.7368113691928418  0.736811359677588  1.0000
  I   I5        1.0  0.26318861390367854  0.7368114150537098  0.2631885925329193  1.0000
  I   I6        1.0  0.7368113514820157  0.263188616584399  0.736811417307889  1.0000
