data_image0
_chemical_formula_structural       Co2MgCl6
_chemical_formula_sum              "Co2 Mg1 Cl6"
_cell_length_a       6.462207524152394
_cell_length_b       6.462207620469534
_cell_length_c       6.462207660915275
_cell_angle_alpha    60.000000200749014
_cell_angle_beta     60.00000006902317
_cell_angle_gamma    59.99999912498082

_space_group_name_H-M_alt    "P 1"
_space_group_IT_number       1

loop_
  _space_group_symop_operation_xyz
  'x, y, z'

loop_
  _atom_site_type_symbol
  _atom_site_label
  _atom_site_symmetry_multiplicity
  _atom_site_fract_x
  _atom_site_fract_y
  _atom_site_fract_z
  _atom_site_occupancy
  Co  Co1       1.0  0.24999995114153375  0.25000005876162906  0.25000003279274674  1.0000
  Co  Co2       1.0  0.7499998779543599  0.7500001080561668  0.7500000598768284  1.0000
  Mg  Mg1       1.0  7.88754402555728e-09  0.9999999924190309  0.9999999565178667  1.0000
  Cl  Cl1       1.0  0.2581707993100244  0.2581706553005776  0.7418292562798261  1.0000
  Cl  Cl2       1.0  0.7418292850394493  0.7418292442880612  0.25817071239100076  1.0000
  Cl  Cl3       1.0  0.7418292908912085  0.25817069360860334  0.2581707274313687  1.0000
  Cl  Cl4       1.0  0.25817070373472495  0.74182931969457  0.7418292849524769  1.0000
  Cl  Cl5       1.0  0.2581707547357716  0.741829273378537  0.2581706656169472  1.0000
  Cl  Cl6       1.0  0.7418293273932876  0.2581706489530085  0.741829311362139  1.0000
