data_image0
_chemical_formula_structural       Co2NiS6
_chemical_formula_sum              "Co2 Ni1 S6"
_cell_length_a       6.18425180600462
_cell_length_b       6.184251865174758
_cell_length_c       6.184252297098556
_cell_angle_alpha    59.99999721299495
_cell_angle_beta     59.999999843414734
_cell_angle_gamma    59.99999937518694

_space_group_name_H-M_alt    "P 1"
_space_group_IT_number       1

loop_
  _space_group_symop_operation_xyz
  'x, y, z'

loop_
  _atom_site_type_symbol
  _atom_site_label
  _atom_site_symmetry_multiplicity
  _atom_site_fract_x
  _atom_site_fract_y
  _atom_site_fract_z
  _atom_site_occupancy
  Co  Co1       1.0  0.2500000236463048  0.24999972494080855  0.2500001377928445  1.0000
  Co  Co2       1.0  0.7499997970122717  0.7500003214886951  0.7499996940318988  1.0000
  Ni  Ni1       1.0  0.9999999591295083  2.178467859731726e-08  0.9999999933728021  1.0000
  S   S1        1.0  0.24705092900514933  0.24705052953912307  0.7529492668343111  1.0000
  S   S2        1.0  0.7529490808970277  0.7529495149099523  0.24705076242071333  1.0000
  S   S3        1.0  0.7529492528922082  0.2470506418801126  0.2470509262652759  1.0000
  S   S4        1.0  0.24705093959718036  0.7529493253323756  0.7529490891226888  1.0000
  S   S5        1.0  0.24705067558443056  0.7529492337669517  0.24705091741075905  1.0000
  S   S6        1.0  0.7529493277940611  0.2470506958174538  0.7529492145807125  1.0000
