data_image0
_chemical_formula_structural       Co2NiI6
_chemical_formula_sum              "Co2 Ni1 I6"
_cell_length_a       7.382212697455597
_cell_length_b       7.382212569144636
_cell_length_c       7.382212737311477
_cell_angle_alpha    59.99999883505962
_cell_angle_beta     59.999999808224025
_cell_angle_gamma    60.00000043685028

_space_group_name_H-M_alt    "P 1"
_space_group_IT_number       1

loop_
  _space_group_symop_operation_xyz
  'x, y, z'

loop_
  _atom_site_type_symbol
  _atom_site_label
  _atom_site_symmetry_multiplicity
  _atom_site_fract_x
  _atom_site_fract_y
  _atom_site_fract_z
  _atom_site_occupancy
  Co  Co1       1.0  0.2500000284648193  0.2499999292506006  0.249999993430074  1.0000
  Co  Co2       1.0  0.7499999988123176  0.749999789410848  0.7500002327159161  1.0000
  Ni  Ni1       1.0  2.5579670555739738e-08  0.9999999983409517  2.46140886664739e-08  1.0000
  I   I1        1.0  0.25270177025821916  0.2527018451092046  0.7472981796781788  1.0000
  I   I2        1.0  0.7472981768613419  0.7472982219524328  0.252701729474505  1.0000
  I   I3        1.0  0.7472981957962498  0.2527019317317265  0.2527017427778521  1.0000
  I   I4        1.0  0.2527018205721864  0.7472981950556583  0.7472981601356385  1.0000
  I   I5        1.0  0.2527018412225426  0.7472981989966454  0.25270176868851263  1.0000
  I   I6        1.0  0.7472981392812396  0.2527018946097685  0.7472981701023979  1.0000
