data_image0
_chemical_formula_structural       Co2NiCl6
_chemical_formula_sum              "Co2 Ni1 Cl6"
_cell_length_a       6.397746859947587
_cell_length_b       6.397746527638423
_cell_length_c       6.397746589149714
_cell_angle_alpha    59.99999873760049
_cell_angle_beta     60.00000010270951
_cell_angle_gamma    59.99999939425463

_space_group_name_H-M_alt    "P 1"
_space_group_IT_number       1

loop_
  _space_group_symop_operation_xyz
  'x, y, z'

loop_
  _atom_site_type_symbol
  _atom_site_label
  _atom_site_symmetry_multiplicity
  _atom_site_fract_x
  _atom_site_fract_y
  _atom_site_fract_z
  _atom_site_occupancy
  Co  Co1       1.0  0.24999984224805372  0.2500001798286619  0.250000327882022  1.0000
  Co  Co2       1.0  0.7500001769615942  0.7499997258923758  0.7499994350726464  1.0000
  Ni  Ni1       1.0  8.167196201772495e-09  1.3400365520890334e-08  1.73511251352659e-08  1.0000
  Cl  Cl1       1.0  0.25006720719759795  0.2500673912475311  0.7499325575620963  1.0000
  Cl  Cl2       1.0  0.7499327584293692  0.7499326427341458  0.2500675853880337  1.0000
  Cl  Cl3       1.0  0.7499326514003379  0.25006734401179337  0.2500672978124019  1.0000
  Cl  Cl4       1.0  0.2500673937685175  0.7499326516831262  0.749932713533588  1.0000
  Cl  Cl5       1.0  0.2500671836114152  0.7499326411833043  0.2500674516662102  1.0000
  Cl  Cl6       1.0  0.7499327657530733  0.2500674253421181  0.7499325940494171  1.0000
