data_image0
_chemical_formula_structural       Co2NiF6
_chemical_formula_sum              "Co2 Ni1 F6"
_cell_length_a       5.177796352541145
_cell_length_b       5.177795236537973
_cell_length_c       5.177795975036834
_cell_angle_alpha    59.99999958306691
_cell_angle_beta     60.000000276725416
_cell_angle_gamma    59.999998851319376

_space_group_name_H-M_alt    "P 1"
_space_group_IT_number       1

loop_
  _space_group_symop_operation_xyz
  'x, y, z'

loop_
  _atom_site_type_symbol
  _atom_site_label
  _atom_site_symmetry_multiplicity
  _atom_site_fract_x
  _atom_site_fract_y
  _atom_site_fract_z
  _atom_site_occupancy
  Co  Co1       1.0  0.25000034866032683  0.2499997085176986  0.250000244436818  1.0000
  Co  Co2       1.0  0.7500000807102258  0.7500003153387476  0.7499998929440308  1.0000
  Ni  Ni1       1.0  0.9999999433237537  9.461515342985484e-09  2.940133772057773e-08  1.0000
  F   F1        1.0  0.25240724257665775  0.2524071205723775  0.7475926805980614  1.0000
  F   F2        1.0  0.7475925293625931  0.7475930357452496  0.2524071340767864  1.0000
  F   F3        1.0  0.7475926787446554  0.25240719430432657  0.2524071839579584  1.0000
  F   F4        1.0  0.2524071930816168  0.747592635590992  0.7475929834686575  1.0000
  F   F5        1.0  0.25240700541805045  0.7475928960273659  0.2524073502836655  1.0000
  F   F6        1.0  0.7475929650041139  0.2524070261177419  0.7475927043381981  1.0000
