data_image0
_chemical_formula_structural       Co2NbF6
_chemical_formula_sum              "Co2 Nb1 F6"
_cell_length_a       5.531347117237966
_cell_length_b       5.531347056213937
_cell_length_c       5.5313469958449595
_cell_angle_alpha    60.00000125383465
_cell_angle_beta     59.99999974838718
_cell_angle_gamma    59.999998567368145

_space_group_name_H-M_alt    "P 1"
_space_group_IT_number       1

loop_
  _space_group_symop_operation_xyz
  'x, y, z'

loop_
  _atom_site_type_symbol
  _atom_site_label
  _atom_site_symmetry_multiplicity
  _atom_site_fract_x
  _atom_site_fract_y
  _atom_site_fract_z
  _atom_site_occupancy
  Co  Co1       1.0  0.24999995835204  0.25000015296889067  0.2500000765300141  1.0000
  Co  Co2       1.0  0.7499998584897639  0.7500000138546445  0.7499998457207444  1.0000
  Nb  Nb1       1.0  1.0817683247032404e-08  0.9999999800722972  0.9999999864762306  1.0000
  F   F1        1.0  0.2539597937671935  0.25395984517769327  0.7460402281208266  1.0000
  F   F2        1.0  0.746040245940471  0.7460401290113845  0.25395990680684305  1.0000
  F   F3        1.0  0.7460401350271045  0.2539598492550945  0.2539598068234213  1.0000
  F   F4        1.0  0.2539599106682443  0.7460401758603311  0.7460401315145876  1.0000
  F   F5        1.0  0.25395986685909466  0.7460401026365104  0.25395982840403775  1.0000
  F   F6        1.0  0.7460402358769218  0.2539598139836455  0.7460401266218816  1.0000
