data_image0
_chemical_formula_structural       Co2NiBr6
_chemical_formula_sum              "Co2 Ni1 Br6"
_cell_length_a       6.85451467811469
_cell_length_b       6.854514604699473
_cell_length_c       6.854514422066423
_cell_angle_alpha    60.00000213600739
_cell_angle_beta     60.00000145799414
_cell_angle_gamma    60.00000096995055

_space_group_name_H-M_alt    "P 1"
_space_group_IT_number       1

loop_
  _space_group_symop_operation_xyz
  'x, y, z'

loop_
  _atom_site_type_symbol
  _atom_site_label
  _atom_site_symmetry_multiplicity
  _atom_site_fract_x
  _atom_site_fract_y
  _atom_site_fract_z
  _atom_site_occupancy
  Co  Co1       1.0  0.2500005375063215  0.2499996750962111  0.2500002464726923  1.0000
  Co  Co2       1.0  0.7500007232564925  0.7500003993155868  0.7499998376164166  1.0000
  Ni  Ni1       1.0  0.9999999258783075  0.9999999999999991  0.9999999611984342  1.0000
  Br  Br1       1.0  0.24654354485182534  0.24654380386969385  0.7534562055427033  1.0000
  Br  Br2       1.0  0.7534561246243642  0.7534563545203332  0.2465435467845467  1.0000
  Br  Br3       1.0  0.75345609649369  0.246543558321816  0.24654377139586262  1.0000
  Br  Br4       1.0  0.2465433102400054  0.7534565089428876  0.7534562453988477  1.0000
  Br  Br5       1.0  0.24654350611775644  0.7534562716655745  0.2465437678457595  1.0000
  Br  Br6       1.0  0.753456228724605  0.24654343288460073  0.7534563873399607  1.0000
