data_image0
_chemical_formula_structural       Co2NiCl6
_chemical_formula_sum              "Co2 Ni1 Cl6"
_cell_length_a       6.397833992208989
_cell_length_b       6.397834036508284
_cell_length_c       6.397834039664997
_cell_angle_alpha    60.00000006889071
_cell_angle_beta     59.99999985951325
_cell_angle_gamma    59.999999896729534

_space_group_name_H-M_alt    "P 1"
_space_group_IT_number       1

loop_
  _space_group_symop_operation_xyz
  'x, y, z'

loop_
  _atom_site_type_symbol
  _atom_site_label
  _atom_site_symmetry_multiplicity
  _atom_site_fract_x
  _atom_site_fract_y
  _atom_site_fract_z
  _atom_site_occupancy
  Co  Co1       1.0  0.2499999841771633  0.25000006562454447  0.2499998223076481  1.0000
  Co  Co2       1.0  0.7499998671978446  0.7499999709848504  0.7500000523671272  1.0000
  Ni  Ni1       1.0  3.748229755990542e-08  0.9999999904284413  7.92703628620356e-09  1.0000
  Cl  Cl1       1.0  0.25013165904483503  0.2501316614398529  0.7498683636148027  1.0000
  Cl  Cl2       1.0  0.7498683409831555  0.7498683407119308  0.2501316696602862  1.0000
  Cl  Cl3       1.0  0.7498684068213926  0.25013166000118614  0.25013167289421534  1.0000
  Cl  Cl4       1.0  0.250131724468164  0.7498682732353751  0.7498684151742954  1.0000
  Cl  Cl5       1.0  0.2501317060397268  0.7498683648376581  0.2501316004562202  1.0000
  Cl  Cl6       1.0  0.7498682863310165  0.2501316602858662  0.7498684017161872  1.0000
