data_image0
_chemical_formula_structural       Co2NbI6
_chemical_formula_sum              "Co2 Nb1 I6"
_cell_length_a       7.818450914684058
_cell_length_b       7.818450781672753
_cell_length_c       7.818450936253032
_cell_angle_alpha    60.00000081979968
_cell_angle_beta     59.999998782453524
_cell_angle_gamma    59.99999959931658

_space_group_name_H-M_alt    "P 1"
_space_group_IT_number       1

loop_
  _space_group_symop_operation_xyz
  'x, y, z'

loop_
  _atom_site_type_symbol
  _atom_site_label
  _atom_site_symmetry_multiplicity
  _atom_site_fract_x
  _atom_site_fract_y
  _atom_site_fract_z
  _atom_site_occupancy
  Co  Co1       1.0  0.24999997220098982  0.25000004953923877  0.24999999002613912  1.0000
  Co  Co2       1.0  0.7499999697429668  0.7500000467965016  0.7500000327897968  1.0000
  Nb  Nb1       1.0  3.5624578192703186e-08  0.999999990601119  1.3746691541910532e-08  1.0000
  I   I1        1.0  0.24901950642005183  0.24901941833350705  0.7509805477097007  1.0000
  I   I2        1.0  0.7509805633890049  0.7509805558167729  0.24901940959415136  1.0000
  I   I3        1.0  0.7509805435656934  0.24901944411151405  0.24901943717859726  1.0000
  I   I4        1.0  0.2490194625578411  0.7509805394376483  0.7509805779651931  1.0000
  I   I5        1.0  0.24901942884290454  0.7509805336141687  0.24901943407186744  1.0000
  I   I6        1.0  0.7509805196972245  0.2490194233048287  0.7509805643435243  1.0000
