data_image0
_chemical_formula_structural       Co2NiO6
_chemical_formula_sum              "Co2 Ni1 O6"
_cell_length_a       4.864798792387507
_cell_length_b       4.864798782870884
_cell_length_c       4.864798750126287
_cell_angle_alpha    60.0000003990238
_cell_angle_beta     60.00000018579213
_cell_angle_gamma    60.00000021278642

_space_group_name_H-M_alt    "P 1"
_space_group_IT_number       1

loop_
  _space_group_symop_operation_xyz
  'x, y, z'

loop_
  _atom_site_type_symbol
  _atom_site_label
  _atom_site_symmetry_multiplicity
  _atom_site_fract_x
  _atom_site_fract_y
  _atom_site_fract_z
  _atom_site_occupancy
  Co  Co1       1.0  0.2499999825619273  0.2500000019001608  0.2500000685369961  1.0000
  Co  Co2       1.0  0.7499999761193759  0.7500000912977021  0.7499997683126354  1.0000
  Ni  Ni1       1.0  2.80552928654456e-09  0.9999999773419121  0.9999999914260278  1.0000
  O   O1        1.0  0.25595591122313643  0.2559558300084879  0.7440441110026502  1.0000
  O   O2        1.0  0.7440441524018894  0.744044112135457  0.2559560017388482  1.0000
  O   O3        1.0  0.7440440180863616  0.25595586727151093  0.2559559308884052  1.0000
  O   O4        1.0  0.2559559097877646  0.7440441403291317  0.7440440916096012  1.0000
  O   O5        1.0  0.2559558319148836  0.7440441618240238  0.2559559599464825  1.0000
  O   O6        1.0  0.7440442173246601  0.25595578787261675  0.7440440801548198  1.0000
