data_image0
_chemical_formula_structural       Co2NiI6
_chemical_formula_sum              "Co2 Ni1 I6"
_cell_length_a       7.384347818226332
_cell_length_b       7.3843478245894465
_cell_length_c       7.384347813634379
_cell_angle_alpha    60.00000000180902
_cell_angle_beta     60.00000005532878
_cell_angle_gamma    60.00000025989733

_space_group_name_H-M_alt    "P 1"
_space_group_IT_number       1

loop_
  _space_group_symop_operation_xyz
  'x, y, z'

loop_
  _atom_site_type_symbol
  _atom_site_label
  _atom_site_symmetry_multiplicity
  _atom_site_fract_x
  _atom_site_fract_y
  _atom_site_fract_z
  _atom_site_occupancy
  Co  Co1       1.0  0.25000001326700344  0.24999998056055403  0.24999999536831488  1.0000
  Co  Co2       1.0  0.749999994783912  0.7500000063658442  0.7499999857509128  1.0000
  Ni  Ni1       1.0  0.9999999832571511  3.317137488144694e-09  2.2963444489135356e-08  1.0000
  I   I1        1.0  0.2526615461019413  0.25266154690929993  0.7473384529783214  1.0000
  I   I2        1.0  0.7473384608269872  0.7473384715299048  0.2526615427382429  1.0000
  I   I3        1.0  0.7473384629719991  0.25266153678507236  0.2526615460092548  1.0000
  I   I4        1.0  0.25266156302233284  0.7473384385313444  0.7473384481938442  1.0000
  I   I5        1.0  0.25266153486050885  0.747338452129926  0.2526615547943535  1.0000
  I   I6        1.0  0.7473384435584282  0.2526615580164348  0.7473384484899025  1.0000
