data_image0
_chemical_formula_structural       Co2NbBr6
_chemical_formula_sum              "Co2 Nb1 Br6"
_cell_length_a       7.2553657058530305
_cell_length_b       7.255365623475313
_cell_length_c       7.255365601399739
_cell_angle_alpha    59.9999992433337
_cell_angle_beta     59.99999781965494
_cell_angle_gamma    59.99999905717929

_space_group_name_H-M_alt    "P 1"
_space_group_IT_number       1

loop_
  _space_group_symop_operation_xyz
  'x, y, z'

loop_
  _atom_site_type_symbol
  _atom_site_label
  _atom_site_symmetry_multiplicity
  _atom_site_fract_x
  _atom_site_fract_y
  _atom_site_fract_z
  _atom_site_occupancy
  Co  Co1       1.0  0.24999992271864976  0.25000005997648933  0.25000008323602324  1.0000
  Co  Co2       1.0  0.7499999551215408  0.750000000995746  0.7499997577773678  1.0000
  Nb  Nb1       1.0  0.9999999973630951  2.7008863657174853e-08  9.866665236339847e-09  1.0000
  Br  Br1       1.0  0.24739363760745586  0.24739366259324172  0.7526063376237072  1.0000
  Br  Br2       1.0  0.7526063422523284  0.7526062785271612  0.2473937741809581  1.0000
  Br  Br3       1.0  0.7526063804368935  0.24739363205129777  0.24739366027139384  1.0000
  Br  Br4       1.0  0.24739373843060444  0.7526063360779688  0.7526063492289156  1.0000
  Br  Br5       1.0  0.2473936618883524  0.7526062768345053  0.24739368886272858  1.0000
  Br  Br6       1.0  0.7526063787853836  0.24739373012000293  0.7526063334303907  1.0000
