data_image0
_chemical_formula_structural       Co2NbCl6
_chemical_formula_sum              "Co2 Nb1 Cl6"
_cell_length_a       6.697564061208755
_cell_length_b       6.697563526983001
_cell_length_c       6.697563598426711
_cell_angle_alpha    59.999999793991144
_cell_angle_beta     60.000001917312275
_cell_angle_gamma    60.00000194762212

_space_group_name_H-M_alt    "P 1"
_space_group_IT_number       1

loop_
  _space_group_symop_operation_xyz
  'x, y, z'

loop_
  _atom_site_type_symbol
  _atom_site_label
  _atom_site_symmetry_multiplicity
  _atom_site_fract_x
  _atom_site_fract_y
  _atom_site_fract_z
  _atom_site_occupancy
  Co  Co1       1.0  0.24999996939418845  0.2500000347293119  0.2499998498221777  1.0000
  Co  Co2       1.0  0.7499999067394408  0.749999968868398  0.7499999732009662  1.0000
  Nb  Nb1       1.0  0.9999999793292186  0.9999999689130782  2.2892691093776794e-08  1.0000
  Cl  Cl1       1.0  0.2520742631885408  0.2520742215351716  0.7479257693956387  1.0000
  Cl  Cl2       1.0  0.747925823175875  0.7479257875484736  0.25207424886443625  1.0000
  Cl  Cl3       1.0  0.7479257614526428  0.25207432021258047  0.2520743566557887  1.0000
  Cl  Cl4       1.0  0.252074322091143  0.7479256559555015  0.7479257317301921  1.0000
  Cl  Cl5       1.0  0.25207433770669374  0.7479256818693739  0.25207427914330005  1.0000
  Cl  Cl6       1.0  0.7479256407381022  0.2520743509866191  0.7479257602872876  1.0000
