data_image0
_chemical_formula_structural       Co2NiTe6
_chemical_formula_sum              "Co2 Ni1 Te6"
_cell_length_a       6.9469406231547275
_cell_length_b       6.946940383919459
_cell_length_c       6.946940392570226
_cell_angle_alpha    59.99999948668975
_cell_angle_beta     59.99999931334511
_cell_angle_gamma    59.99999882068033

_space_group_name_H-M_alt    "P 1"
_space_group_IT_number       1

loop_
  _space_group_symop_operation_xyz
  'x, y, z'

loop_
  _atom_site_type_symbol
  _atom_site_label
  _atom_site_symmetry_multiplicity
  _atom_site_fract_x
  _atom_site_fract_y
  _atom_site_fract_z
  _atom_site_occupancy
  Co  Co1       1.0  0.2500003344088926  0.24999987776672292  0.24999965266843802  1.0000
  Co  Co2       1.0  0.7500000856675567  0.7500000423159362  0.7499997952674652  1.0000
  Ni  Ni1       1.0  2.268273314699238e-08  1.7629988484590474e-09  0.9999999345162766  1.0000
  Te  Te1       1.0  0.25733437381687774  0.2573343914396735  0.7426657464846694  1.0000
  Te  Te2       1.0  0.7426655105678844  0.7426656696829068  0.2573345393468921  1.0000
  Te  Te3       1.0  0.7426655108400879  0.25733434042508324  0.25733446141111865  1.0000
  Te  Te4       1.0  0.2573343521064779  0.7426655955245689  0.7426656760456816  1.0000
  Te  Te5       1.0  0.2573343413639911  0.7426656688950979  0.25733442271543255  1.0000
  Te  Te6       1.0  0.7426654705564295  0.25733441514646926  0.7426657698512318  1.0000
