data_image0
_chemical_formula_structural       Co2NiF6
_chemical_formula_sum              "Co2 Ni1 F6"
_cell_length_a       5.178627483988262
_cell_length_b       5.1786277751894
_cell_length_c       5.178627542270952
_cell_angle_alpha    59.99999969799807
_cell_angle_beta     60.000000362720655
_cell_angle_gamma    59.99999923720168

_space_group_name_H-M_alt    "P 1"
_space_group_IT_number       1

loop_
  _space_group_symop_operation_xyz
  'x, y, z'

loop_
  _atom_site_type_symbol
  _atom_site_label
  _atom_site_symmetry_multiplicity
  _atom_site_fract_x
  _atom_site_fract_y
  _atom_site_fract_z
  _atom_site_occupancy
  Co  Co1       1.0  0.24999991672522695  0.24999994016980512  0.2500000596852252  1.0000
  Co  Co2       1.0  0.7499999927190111  0.7500000026143216  0.7500000130758819  1.0000
  Ni  Ni1       1.0  3.279305946192448e-08  0.9999999952700025  0.9999999531412388  1.0000
  F   F1        1.0  0.2523948125916272  0.25239474535138734  0.7476052147159227  1.0000
  F   F2        1.0  0.7476051648693668  0.7476052943976919  0.2523947446581124  1.0000
  F   F3        1.0  0.7476052814415063  0.2523947680828757  0.25239479452566094  1.0000
  F   F4        1.0  0.25239475401599826  0.7476052314612199  0.7476052428482216  1.0000
  F   F5        1.0  0.25239476910843056  0.74760522869441  0.2523947549376923  1.0000
  F   F6        1.0  0.7476052783981686  0.25239480159467165  0.7476052127638106  1.0000
