data_image0
_chemical_formula_structural       Co2NiSe6
_chemical_formula_sum              "Co2 Ni1 Se6"
_cell_length_a       6.578964748237229
_cell_length_b       6.578965553280928
_cell_length_c       6.578965270875501
_cell_angle_alpha    60.00000039403324
_cell_angle_beta     59.999997775554796
_cell_angle_gamma    60.00000667541316

_space_group_name_H-M_alt    "P 1"
_space_group_IT_number       1

loop_
  _space_group_symop_operation_xyz
  'x, y, z'

loop_
  _atom_site_type_symbol
  _atom_site_label
  _atom_site_symmetry_multiplicity
  _atom_site_fract_x
  _atom_site_fract_y
  _atom_site_fract_z
  _atom_site_occupancy
  Co  Co1       1.0  0.25000596392507063  0.24999805150546597  0.2499973534038353  1.0000
  Co  Co2       1.0  0.7499986520635913  0.7499987508229203  0.7500044024602992  1.0000
  Ni  Ni1       1.0  0.9999999213198281  1.4892850839586869e-08  8.66135112983924e-08  1.0000
  Se  Se1       1.0  0.24891965086905415  0.24891907980068562  0.7510807564806794  1.0000
  Se  Se2       1.0  0.7510789656531652  0.7510823467591698  0.24891774261162086  1.0000
  Se  Se3       1.0  0.7510784561557822  0.2489208251116262  0.24891802035173155  1.0000
  Se  Se4       1.0  0.24891894471757303  0.7510801676937402  0.7510809660031632  1.0000
  Se  Se5       1.0  0.24892115432611298  0.7510812465852614  0.2489177987815472  1.0000
  Se  Se6       1.0  0.7510782965723822  0.24891953027377306  0.7510828560469159  1.0000
