data_image0
_chemical_formula_structural       Co2PO6
_chemical_formula_sum              "Co2 P1 O6"
_cell_length_a       4.547964678808566
_cell_length_b       4.547964589315619
_cell_length_c       4.547964593083655
_cell_angle_alpha    59.99999977059357
_cell_angle_beta     59.99999920451374
_cell_angle_gamma    59.99999956304504

_space_group_name_H-M_alt    "P 1"
_space_group_IT_number       1

loop_
  _space_group_symop_operation_xyz
  'x, y, z'

loop_
  _atom_site_type_symbol
  _atom_site_label
  _atom_site_symmetry_multiplicity
  _atom_site_fract_x
  _atom_site_fract_y
  _atom_site_fract_z
  _atom_site_occupancy
  Co  Co1       1.0  0.24999987690372277  0.2500000097175737  0.25000080857057194  1.0000
  Co  Co2       1.0  0.7499998820925886  0.7499999833725388  0.750000884905176  1.0000
  P   P1        1.0  1.3036287378130416e-06  7.270966871188197e-08  0.9999902242490405  1.0000
  O   O1        1.0  0.26515504036487053  0.2651549575582151  0.7348444825961968  1.0000
  O   O2        1.0  0.7348443057220825  0.7348441872521183  0.265155224919015  1.0000
  O   O3        1.0  0.7348419260194671  0.26515821872422757  0.2651576220417395  1.0000
  O   O4        1.0  0.26515258558518184  0.734847469958632  0.7348469674105744  1.0000
  O   O5        1.0  0.26515792118204745  0.7348421849445356  0.2651572410936455  1.0000
  O   O6        1.0  0.7348471891347311  0.2651529204383427  0.7348465249029623  1.0000
