data_image0
_chemical_formula_structural       Co2PF6
_chemical_formula_sum              "Co2 P1 F6"
_cell_length_a       4.6830215561088195
_cell_length_b       4.683021689036489
_cell_length_c       4.683022217434319
_cell_angle_alpha    59.999998466796285
_cell_angle_beta     59.99999837452875
_cell_angle_gamma    59.99999814035227

_space_group_name_H-M_alt    "P 1"
_space_group_IT_number       1

loop_
  _space_group_symop_operation_xyz
  'x, y, z'

loop_
  _atom_site_type_symbol
  _atom_site_label
  _atom_site_symmetry_multiplicity
  _atom_site_fract_x
  _atom_site_fract_y
  _atom_site_fract_z
  _atom_site_occupancy
  Co  Co1       1.0  0.24999998644101698  0.2499999838420097  0.24999994816921467  1.0000
  Co  Co2       1.0  0.7499999832580339  0.7499999462954561  0.750000040151264  1.0000
  P   P1        1.0  1.0953854433918058e-07  0.9999999450789585  7.30537891979259e-08  1.0000
  F   F1        1.0  0.24280669815163713  0.24280661313224  0.7571933054174254  1.0000
  F   F2        1.0  0.7571935073331547  0.7571934085402917  0.24280656408549334  1.0000
  F   F3        1.0  0.7571933614111203  0.24280660476390067  0.24280664882990066  1.0000
  F   F4        1.0  0.2428065136676019  0.7571934169086367  0.7571934520726108  1.0000
  F   F5        1.0  0.24280655791350939  0.7571933995436375  0.24280661359596226  1.0000
  F   F6        1.0  0.757193284811746  0.24280663782062398  0.7571933162660737  1.0000
