data_image0
_chemical_formula_structural       Co2PI6
_chemical_formula_sum              "Co2 P1 I6"
_cell_length_a       7.565205656863558
_cell_length_b       7.5652047771578665
_cell_length_c       7.565205115621152
_cell_angle_alpha    59.99999831514478
_cell_angle_beta     59.99999861534279
_cell_angle_gamma    59.99999878702061

_space_group_name_H-M_alt    "P 1"
_space_group_IT_number       1

loop_
  _space_group_symop_operation_xyz
  'x, y, z'

loop_
  _atom_site_type_symbol
  _atom_site_label
  _atom_site_symmetry_multiplicity
  _atom_site_fract_x
  _atom_site_fract_y
  _atom_site_fract_z
  _atom_site_occupancy
  Co  Co1       1.0  0.2500000692533781  0.25000001425090457  0.250000002614352  1.0000
  Co  Co2       1.0  0.7500000569470625  0.7500000006608284  0.7499997169960599  1.0000
  P   P1        1.0  1.4554374836242461e-08  0.9999999838108176  8.409340062364947e-08  1.0000
  I   I1        1.0  0.25679489040302733  0.2567948619519577  0.7432051352292199  1.0000
  I   I2        1.0  0.7432050773367721  0.7432051383895105  0.2567949934259084  1.0000
  I   I3        1.0  0.7432050740735311  0.25679484947683723  0.2567949393662872  1.0000
  I   I4        1.0  0.2567948878545999  0.7432051087727517  0.743205087665699  1.0000
  I   I5        1.0  0.25679484370258704  0.743205094912933  0.25679496073259006  1.0000
  I   I6        1.0  0.7432050904420548  0.256794932950146  0.7432050929706805  1.0000
