data_image0
_chemical_formula_structural       Co2PSe6
_chemical_formula_sum              "Co2 P1 Se6"
_cell_length_a       6.310254115214401
_cell_length_b       6.3102545331372895
_cell_length_c       6.310254512403658
_cell_angle_alpha    59.999997254475616
_cell_angle_beta     59.99999607504929
_cell_angle_gamma    59.999998022308155

_space_group_name_H-M_alt    "P 1"
_space_group_IT_number       1

loop_
  _space_group_symop_operation_xyz
  'x, y, z'

loop_
  _atom_site_type_symbol
  _atom_site_label
  _atom_site_symmetry_multiplicity
  _atom_site_fract_x
  _atom_site_fract_y
  _atom_site_fract_z
  _atom_site_occupancy
  Co  Co1       1.0  0.24999876622159808  0.24999995238759853  0.25000006033822003  1.0000
  Co  Co2       1.0  0.7500002341488969  0.750000687859485  0.7499997930893585  1.0000
  P   P1        1.0  1.9630805164929848e-08  0.9999999301283065  6.315377664893098e-08  1.0000
  Se  Se1       1.0  0.28926529182489547  0.2892651674337583  0.7107349641506787  1.0000
  Se  Se2       1.0  0.7107349912537149  0.7107344189152714  0.2892652693051801  1.0000
  Se  Se3       1.0  0.7107353028360949  0.2892651522592255  0.28926540324031935  1.0000
  Se  Se4       1.0  0.2892652069571552  0.7107347640394572  0.7107346469667108  1.0000
  Se  Se5       1.0  0.28926514552110166  0.7107350212334654  0.2892653429293652  1.0000
  Se  Se6       1.0  0.7107350199217676  0.289264912533155  0.7107344618605803  1.0000
