data_image0
_chemical_formula_structural       Co2PdBr6
_chemical_formula_sum              "Co2 Pd1 Br6"
_cell_length_a       7.000334802463519
_cell_length_b       7.000334792738139
_cell_length_c       7.000334778243854
_cell_angle_alpha    59.99999992532505
_cell_angle_beta     59.999999799682136
_cell_angle_gamma    59.9999999494393

_space_group_name_H-M_alt    "P 1"
_space_group_IT_number       1

loop_
  _space_group_symop_operation_xyz
  'x, y, z'

loop_
  _atom_site_type_symbol
  _atom_site_label
  _atom_site_symmetry_multiplicity
  _atom_site_fract_x
  _atom_site_fract_y
  _atom_site_fract_z
  _atom_site_occupancy
  Co  Co1       1.0  0.25000004539078313  0.25000000427224284  0.25000005013937715  1.0000
  Co  Co2       1.0  0.7499999901679137  0.7499999708274839  0.750000090136636  1.0000
  Pd  Pd1       1.0  0.999999999416816  1.7495518533429472e-09  2.2738222720270966e-09  1.0000
  Br  Br1       1.0  0.25087984258736246  0.25087981344401544  0.7491201442253653  1.0000
  Br  Br2       1.0  0.7491201810246477  0.7491201826503338  0.2508797901077414  1.0000
  Br  Br3       1.0  0.7491201742232803  0.25087983653986745  0.25087980567562407  1.0000
  Br  Br4       1.0  0.25087979453804904  0.7491202102914855  0.7491201507133649  1.0000
  Br  Br5       1.0  0.2508798501309087  0.7491201422749778  0.2508798069293872  1.0000
  Br  Br6       1.0  0.7491201199311819  0.25087983632385275  0.7491201629264388  1.0000
