data_image0
_chemical_formula_structural       Co2PdF6
_chemical_formula_sum              "Co2 Pd1 F6"
_cell_length_a       5.39111455379819
_cell_length_b       5.39111430237313
_cell_length_c       5.391114406126544
_cell_angle_alpha    59.999999183464794
_cell_angle_beta     59.999999329812574
_cell_angle_gamma    59.99999956344254

_space_group_name_H-M_alt    "P 1"
_space_group_IT_number       1

loop_
  _space_group_symop_operation_xyz
  'x, y, z'

loop_
  _atom_site_type_symbol
  _atom_site_label
  _atom_site_symmetry_multiplicity
  _atom_site_fract_x
  _atom_site_fract_y
  _atom_site_fract_z
  _atom_site_occupancy
  Co  Co1       1.0  0.2499999064931831  0.2500001096324142  0.24999997506653987  1.0000
  Co  Co2       1.0  0.7500000578155291  0.7499998086586407  0.7500000643784328  1.0000
  Pd  Pd1       1.0  0.9999999747951057  1.1358921387918083e-08  3.660145166550465e-08  1.0000
  F   F1        1.0  0.2585241789020908  0.2585242666591246  0.7414757448281526  1.0000
  F   F2        1.0  0.7414758293016652  0.7414757833954202  0.2585241826737998  1.0000
  F   F3        1.0  0.7414757880664324  0.2585242408598588  0.2585242000921329  1.0000
  F   F4        1.0  0.2585242208092429  0.7414757364975884  0.7414757912459697  1.0000
  F   F5        1.0  0.2585241954462271  0.7414757777697872  0.25852421634982414  1.0000
  F   F6        1.0  0.7414758307795838  0.258524263197621  0.7414757957200637  1.0000
