data_image0
_chemical_formula_structural       Co2PS6
_chemical_formula_sum              "Co2 P1 S6"
_cell_length_a       6.354383387170134
_cell_length_b       6.354383353287294
_cell_length_c       6.354383777999283
_cell_angle_alpha    59.99999902148043
_cell_angle_beta     59.999997809081314
_cell_angle_gamma    59.999999583092546

_space_group_name_H-M_alt    "P 1"
_space_group_IT_number       1

loop_
  _space_group_symop_operation_xyz
  'x, y, z'

loop_
  _atom_site_type_symbol
  _atom_site_label
  _atom_site_symmetry_multiplicity
  _atom_site_fract_x
  _atom_site_fract_y
  _atom_site_fract_z
  _atom_site_occupancy
  Co  Co1       1.0  0.2499997233776171  0.250000553961694  0.24999997210741928  1.0000
  Co  Co2       1.0  0.750000195333796  0.7499992622700767  0.7500013919613416  1.0000
  P   P1        1.0  3.164461584011248e-08  0.9999999922903937  0.9999999927536453  1.0000
  S   S1        1.0  0.24277903799861436  0.24277937947361797  0.7572207368994026  1.0000
  S   S2        1.0  0.7572209920892783  0.7572206314256905  0.242778618735338  1.0000
  S   S3        1.0  0.757220907429992  0.24277982016869892  0.24277854342151148  1.0000
  S   S4        1.0  0.2427788343824925  0.7572205376629043  0.7572210598589321  1.0000
  S   S5        1.0  0.24277944741570762  0.7572205108975247  0.24277893661111777  1.0000
  S   S6        1.0  0.7572208553614098  0.24277930340682455  0.7572207177518662  1.0000
