data_image0
_chemical_formula_structural       Co2PdI6
_chemical_formula_sum              "Co2 Pd1 I6"
_cell_length_a       7.471234870244955
_cell_length_b       7.471234823375958
_cell_length_c       7.471234812568454
_cell_angle_alpha    60.00000035082783
_cell_angle_beta     60.000000457261116
_cell_angle_gamma    59.999999842104245

_space_group_name_H-M_alt    "P 1"
_space_group_IT_number       1

loop_
  _space_group_symop_operation_xyz
  'x, y, z'

loop_
  _atom_site_type_symbol
  _atom_site_label
  _atom_site_symmetry_multiplicity
  _atom_site_fract_x
  _atom_site_fract_y
  _atom_site_fract_z
  _atom_site_occupancy
  Co  Co1       1.0  0.25000000907572856  0.24999998663745368  0.2500000169793063  1.0000
  Co  Co2       1.0  0.7500000066504712  0.7500000123693331  0.7499999720898488  1.0000
  Pd  Pd1       1.0  3.0723063036685414e-08  9.835682237924209e-09  0.9999999931052957  1.0000
  I   I1        1.0  0.25544348445861365  0.2554434955104772  0.7445565079693969  1.0000
  I   I2        1.0  0.7445564799062276  0.7445564952999081  0.25544352827870687  1.0000
  I   I3        1.0  0.7445565219006576  0.25544346857253075  0.25544348692552543  1.0000
  I   I4        1.0  0.25544348046221377  0.7445565287949757  0.7445565109834009  1.0000
  I   I5        1.0  0.2554434625430194  0.7445565192918028  0.2554434728798288  1.0000
  I   I6        1.0  0.7445565231779627  0.2554434862721057  0.7445565078363718  1.0000
