data_image0
_chemical_formula_structural       Co2PdCl6
_chemical_formula_sum              "Co2 Pd1 Cl6"
_cell_length_a       6.530217143221038
_cell_length_b       6.530217175499917
_cell_length_c       6.530217251713289
_cell_angle_alpha    60.000000262989296
_cell_angle_beta     60.000000063511166
_cell_angle_gamma    60.000000243191685

_space_group_name_H-M_alt    "P 1"
_space_group_IT_number       1

loop_
  _space_group_symop_operation_xyz
  'x, y, z'

loop_
  _atom_site_type_symbol
  _atom_site_label
  _atom_site_symmetry_multiplicity
  _atom_site_fract_x
  _atom_site_fract_y
  _atom_site_fract_z
  _atom_site_occupancy
  Co  Co1       1.0  0.25000004290423  0.2500000112184553  0.24999999280259544  1.0000
  Co  Co2       1.0  0.7500001852596317  0.7500000974225012  0.7499995277583801  1.0000
  Pd  Pd1       1.0  0.9999999549542539  1.3128528220363916e-08  1.136458096639807e-08  1.0000
  Cl  Cl1       1.0  0.25265591242616786  0.25265592250730007  0.7473440816182308  1.0000
  Cl  Cl2       1.0  0.7473441050871071  0.7473440435953519  0.25265608412803037  1.0000
  Cl  Cl3       1.0  0.7473440469750896  0.25265581821621785  0.2526560160891172  1.0000
  Cl  Cl4       1.0  0.25265593574645695  0.7473440559867358  0.7473441042775308  1.0000
  Cl  Cl5       1.0  0.2526557590539576  0.7473441153845654  0.2526560483521905  1.0000
  Cl  Cl6       1.0  0.7473440537170626  0.2526559238627438  0.7473441372525902  1.0000
