data_image0
_chemical_formula_structural       Co2ScCl6
_chemical_formula_sum              "Co2 Sc1 Cl6"
_cell_length_a       6.5783796747356575
_cell_length_b       6.578379726525954
_cell_length_c       6.578379668128704
_cell_angle_alpha    60.00000063309209
_cell_angle_beta     60.00000020107877
_cell_angle_gamma    60.00000015686264

_space_group_name_H-M_alt    "P 1"
_space_group_IT_number       1

loop_
  _space_group_symop_operation_xyz
  'x, y, z'

loop_
  _atom_site_type_symbol
  _atom_site_label
  _atom_site_symmetry_multiplicity
  _atom_site_fract_x
  _atom_site_fract_y
  _atom_site_fract_z
  _atom_site_occupancy
  Co  Co1       1.0  0.25000012085123946  0.25000001043372994  0.24999994229880476  1.0000
  Co  Co2       1.0  0.7499999757131405  0.7500001281133784  0.7500000190346752  1.0000
  Sc  Sc1       1.0  1.2500027076231297e-08  0.9999999888293628  0.9999999598118945  1.0000
  Cl  Cl1       1.0  0.25952651966198137  0.2595265415961075  0.7404734493685725  1.0000
  Cl  Cl2       1.0  0.7404734498670728  0.7404734777975399  0.2595264906468391  1.0000
  Cl  Cl3       1.0  0.7404734853263198  0.25952644597138025  0.2595265397558292  1.0000
  Cl  Cl4       1.0  0.2595264847716539  0.7404734821953988  0.7404735322360334  1.0000
  Cl  Cl5       1.0  0.2595265071857466  0.7404734862351117  0.25952651995883197  1.0000
  Cl  Cl6       1.0  0.7404734407139666  0.2595264400698945  0.7404735488617357  1.0000
