data_image0
_chemical_formula_structural       Co2SI6
_chemical_formula_sum              "Co2 S1 I6"
_cell_length_a       7.530879259906088
_cell_length_b       7.53087908232181
_cell_length_c       7.530879385495473
_cell_angle_alpha    60.000000880469536
_cell_angle_beta     60.000000657120225
_cell_angle_gamma    60.00000131221559

_space_group_name_H-M_alt    "P 1"
_space_group_IT_number       1

loop_
  _space_group_symop_operation_xyz
  'x, y, z'

loop_
  _atom_site_type_symbol
  _atom_site_label
  _atom_site_symmetry_multiplicity
  _atom_site_fract_x
  _atom_site_fract_y
  _atom_site_fract_z
  _atom_site_occupancy
  Co  Co1       1.0  0.24999995512927242  0.2500001807438931  0.2499999102768247  1.0000
  Co  Co2       1.0  0.749999980190637  0.750000096626212  0.7499999573136353  1.0000
  S   S1        1.0  6.439808728881424e-08  4.0559676263284178e-16  0.9999999465550979  1.0000
  I   I1        1.0  0.2668312112861345  0.2668311359065308  0.733168853818408  1.0000
  I   I2        1.0  0.7331688576691799  0.7331687267577568  0.2668312140612305  1.0000
  I   I3        1.0  0.733168784721706  0.26683117624798325  0.266831216567358  1.0000
  I   I4        1.0  0.26683120176023195  0.7331687498418993  0.733168856852573  1.0000
  I   I5        1.0  0.2668311682144896  0.7331687874398968  0.26683117894173997  1.0000
  I   I6        1.0  0.7331687855263054  0.2668311402762815  0.7331688635602982  1.0000
