data_image0
_chemical_formula_structural       Co2SBr6
_chemical_formula_sum              "Co2 S1 Br6"
_cell_length_a       7.036287008275503
_cell_length_b       7.036287240123412
_cell_length_c       7.036287175506477
_cell_angle_alpha    60.000002159953866
_cell_angle_beta     60.00000071569146
_cell_angle_gamma    60.00000215660079

_space_group_name_H-M_alt    "P 1"
_space_group_IT_number       1

loop_
  _space_group_symop_operation_xyz
  'x, y, z'

loop_
  _atom_site_type_symbol
  _atom_site_label
  _atom_site_symmetry_multiplicity
  _atom_site_fract_x
  _atom_site_fract_y
  _atom_site_fract_z
  _atom_site_occupancy
  Co  Co1       1.0  0.24999821373494044  0.24999776163028622  0.250002608780979  1.0000
  Co  Co2       1.0  0.7499988202687217  0.750001070649818  0.7499999025668987  1.0000
  S   S1        1.0  2.068395962528733e-07  5.3958983451085713e-08  0.9999998781279377  1.0000
  Br  Br1       1.0  0.25207535299493183  0.2520745443767609  0.7479247812152814  1.0000
  Br  Br2       1.0  0.7479249991223926  0.7479254993695342  0.2520748627521971  1.0000
  Br  Br3       1.0  0.7479260031850791  0.252074582918903  0.2520750092517251  1.0000
  Br  Br4       1.0  0.25207506172594035  0.7479259760486497  0.7479242566281684  1.0000
  Br  Br5       1.0  0.2520752514881165  0.7479257682586504  0.25207446972341524  1.0000
  Br  Br6       1.0  0.7479261064454955  0.2520747141219537  0.7479242089928857  1.0000
