data_image0
_chemical_formula_structural       Co2SBr6
_chemical_formula_sum              "Co2 S1 Br6"
_cell_length_a       7.034836278258264
_cell_length_b       7.034836288296746
_cell_length_c       7.034836156020264
_cell_angle_alpha    59.99999969478089
_cell_angle_beta     60.000001062825575
_cell_angle_gamma    59.999999854780896

_space_group_name_H-M_alt    "P 1"
_space_group_IT_number       1

loop_
  _space_group_symop_operation_xyz
  'x, y, z'

loop_
  _atom_site_type_symbol
  _atom_site_label
  _atom_site_symmetry_multiplicity
  _atom_site_fract_x
  _atom_site_fract_y
  _atom_site_fract_z
  _atom_site_occupancy
  Co  Co1       1.0  0.24999997399984986  0.24999995035747696  0.2500000500678757  1.0000
  Co  Co2       1.0  0.750000069060127  0.7500000007959735  0.749999805644951  1.0000
  S   S1        1.0  6.764749801727224e-09  0.9999999895541718  0.9999999876255672  1.0000
  Br  Br1       1.0  0.25216467916171137  0.2521647219835624  0.7478352778336428  1.0000
  Br  Br2       1.0  0.7478352796546801  0.7478353144774843  0.2521647834642735  1.0000
  Br  Br3       1.0  0.7478352908691649  0.25216467347104127  0.2521647405924356  1.0000
  Br  Br4       1.0  0.2521646942267664  0.7478353333934923  0.7478352811405486  1.0000
  Br  Br5       1.0  0.2521646451653834  0.7478352959933785  0.2521647639395615  1.0000
  Br  Br6       1.0  0.7478353631918186  0.25216472479892527  0.7478352989017852  1.0000
