data_image0
_chemical_formula_structural       Co2SiCl6
_chemical_formula_sum              "Co2 Si1 Cl6"
_cell_length_a       6.564460623220131
_cell_length_b       6.564460858352208
_cell_length_c       6.564460764854767
_cell_angle_alpha    60.000000257239705
_cell_angle_beta     60.00000043291069
_cell_angle_gamma    60.00000111941194

_space_group_name_H-M_alt    "P 1"
_space_group_IT_number       1

loop_
  _space_group_symop_operation_xyz
  'x, y, z'

loop_
  _atom_site_type_symbol
  _atom_site_label
  _atom_site_symmetry_multiplicity
  _atom_site_fract_x
  _atom_site_fract_y
  _atom_site_fract_z
  _atom_site_occupancy
  Co  Co1       1.0  0.2500006783229212  0.2499990549000757  0.25000045163870666  1.0000
  Co  Co2       1.0  0.7499996262311358  0.750000427845226  0.7499997394959987  1.0000
  Si  Si1       1.0  6.036003228977193e-10  2.985152647549151e-08  1.5293346397826547e-09  1.0000
  Cl  Cl1       1.0  0.2399482870435045  0.23994814136549242  0.760051730383247  1.0000
  Cl  Cl2       1.0  0.760051534319829  0.7600520205020379  0.2399482850946277  1.0000
  Cl  Cl3       1.0  0.7600515805326469  0.23994814318043778  0.2399483265301273  1.0000
  Cl  Cl4       1.0  0.23994836319673227  0.7600520895844695  0.7600514902512944  1.0000
  Cl  Cl5       1.0  0.2399481686026103  0.7600519587673753  0.2399482214185243  1.0000
  Cl  Cl6       1.0  0.760051726267596  0.2399481303370592  0.760051790640754  1.0000
