data_image0
_chemical_formula_structural       Co2SiTe6
_chemical_formula_sum              "Co2 Si1 Te6"
_cell_length_a       7.168988737982631
_cell_length_b       7.168988425587107
_cell_length_c       7.168988683177305
_cell_angle_alpha    60.0000002167692
_cell_angle_beta     59.999998855007526
_cell_angle_gamma    60.00000007158905

_space_group_name_H-M_alt    "P 1"
_space_group_IT_number       1

loop_
  _space_group_symop_operation_xyz
  'x, y, z'

loop_
  _atom_site_type_symbol
  _atom_site_label
  _atom_site_symmetry_multiplicity
  _atom_site_fract_x
  _atom_site_fract_y
  _atom_site_fract_z
  _atom_site_occupancy
  Co  Co1       1.0  0.24999997772788443  0.250000141706968  0.24999993449552632  1.0000
  Co  Co2       1.0  0.7499998412685802  0.7499999518960863  0.7500004375705361  1.0000
  Si  Si1       1.0  2.370532611311355e-08  0.9999999675405363  3.088010905010122e-08  1.0000
  Te  Te1       1.0  0.259021637382844  0.25902154132203997  0.7409784046394176  1.0000
  Te  Te2       1.0  0.740978431256413  0.7409784121927913  0.25902142164565156  1.0000
  Te  Te3       1.0  0.7409784387298347  0.2590216896195716  0.2590214846208829  1.0000
  Te  Te4       1.0  0.2590215400514107  0.7409783305225818  0.7409784104703051  1.0000
  Te  Te5       1.0  0.25902173546065693  0.7409783493411373  0.259021459414409  1.0000
  Te  Te6       1.0  0.7409783716397056  0.2590216144240533  0.7409784248138438  1.0000
