data_image0
_chemical_formula_structural       Co2SiBr6
_chemical_formula_sum              "Co2 Si1 Br6"
_cell_length_a       7.0085955216127225
_cell_length_b       7.008595393804347
_cell_length_c       7.008595243277035
_cell_angle_alpha    60.00000054942728
_cell_angle_beta     59.99999935190484
_cell_angle_gamma    60.00000019821083

_space_group_name_H-M_alt    "P 1"
_space_group_IT_number       1

loop_
  _space_group_symop_operation_xyz
  'x, y, z'

loop_
  _atom_site_type_symbol
  _atom_site_label
  _atom_site_symmetry_multiplicity
  _atom_site_fract_x
  _atom_site_fract_y
  _atom_site_fract_z
  _atom_site_occupancy
  Co  Co1       1.0  0.25000003680798055  0.2500002863672746  0.2499999825569485  1.0000
  Co  Co2       1.0  0.7500001857428852  0.7500009989009956  0.7499982606226572  1.0000
  Si  Si1       1.0  0.9999999901661447  0.999999910878023  1.2509934718057405e-07  1.0000
  Br  Br1       1.0  0.24220239187603357  0.2422021405695269  0.7577977137288742  1.0000
  Br  Br2       1.0  0.7577977282877034  0.757797543998136  0.24220279211903753  1.0000
  Br  Br3       1.0  0.7577976321493756  0.2422018579828677  0.24220281602194113  1.0000
  Br  Br4       1.0  0.24220233609446348  0.7577975854312083  0.757797817875382  1.0000
  Br  Br5       1.0  0.24220204538033294  0.7577975441055224  0.2422026820455652  1.0000
  Br  Br6       1.0  0.7577976592184132  0.24220213172468905  0.7577978119429204  1.0000
