data_image0
_chemical_formula_structural       Co2SF6
_chemical_formula_sum              "Co2 S1 F6"
_cell_length_a       4.697637308955135
_cell_length_b       4.697632829238537
_cell_length_c       4.697635425934583
_cell_angle_alpha    60.00002719944318
_cell_angle_beta     60.00001058304128
_cell_angle_gamma    60.00002852054358

_space_group_name_H-M_alt    "P 1"
_space_group_IT_number       1

loop_
  _space_group_symop_operation_xyz
  'x, y, z'

loop_
  _atom_site_type_symbol
  _atom_site_label
  _atom_site_symmetry_multiplicity
  _atom_site_fract_x
  _atom_site_fract_y
  _atom_site_fract_z
  _atom_site_occupancy
  Co  Co1       1.0  0.2499997784266359  0.25000027725868945  0.2500002120610352  1.0000
  Co  Co2       1.0  0.7500002544482951  0.7500003233816785  0.7500005223313267  1.0000
  S   S1        1.0  9.959021781167832e-08  1.3087917745221006e-06  1.543748902638074e-06  1.0000
  F   F1        1.0  0.25614564679943824  0.2561455849683038  0.7438544529491717  1.0000
  F   F2        1.0  0.7438528151429984  0.7438531802359536  0.2561475503658632  1.0000
  F   F3        1.0  0.7438548616781735  0.2561449388494213  0.25614490895827174  1.0000
  F   F4        1.0  0.25614832917320934  0.7438522125272967  0.7438523288184845  1.0000
  F   F5        1.0  0.25614529985095796  0.7438547327357309  0.256145638867231  1.0000
  F   F6        1.0  0.743852834791162  0.25614744783721893  0.7438529407457293  1.0000
