data_image0
_chemical_formula_structural       Co2SeI6
_chemical_formula_sum              "Co2 Se1 I6"
_cell_length_a       7.650344245914289
_cell_length_b       7.650344281133649
_cell_length_c       7.65034395647067
_cell_angle_alpha    59.99999955987872
_cell_angle_beta     59.999999802125245
_cell_angle_gamma    59.99999972629627

_space_group_name_H-M_alt    "P 1"
_space_group_IT_number       1

loop_
  _space_group_symop_operation_xyz
  'x, y, z'

loop_
  _atom_site_type_symbol
  _atom_site_label
  _atom_site_symmetry_multiplicity
  _atom_site_fract_x
  _atom_site_fract_y
  _atom_site_fract_z
  _atom_site_occupancy
  Co  Co1       1.0  0.25000010480120477  0.24999996158861648  0.24999989937820863  1.0000
  Co  Co2       1.0  0.7500000019980114  0.7499999888244527  0.7500000768055897  1.0000
  Se  Se1       1.0  0.9999999942974326  3.5219835925122295e-08  7.4625884589782e-09  1.0000
  I   I1        1.0  0.2659490203580068  0.26594902137642296  0.7340509991173668  1.0000
  I   I2        1.0  0.7340509484342469  0.7340509898709094  0.26594898166738173  1.0000
  I   I3        1.0  0.7340509319489235  0.26594905809223074  0.2659490150465765  1.0000
  I   I4        1.0  0.26594900779955516  0.7340509723659213  0.7340509954901344  1.0000
  I   I5        1.0  0.2659490681822711  0.7340509475690532  0.2659490204027194  1.0000
  I   I6        1.0  0.734050914209792  0.265949036462951  0.7340509946395349  1.0000
