data_image0
_chemical_formula_structural       Co2SF6
_chemical_formula_sum              "Co2 S1 F6"
_cell_length_a       5.246456095867011
_cell_length_b       5.246456204376852
_cell_length_c       5.2464563326039135
_cell_angle_alpha    60.000002220790925
_cell_angle_beta     60.00000122822866
_cell_angle_gamma    60.00000232665223

_space_group_name_H-M_alt    "P 1"
_space_group_IT_number       1

loop_
  _space_group_symop_operation_xyz
  'x, y, z'

loop_
  _atom_site_type_symbol
  _atom_site_label
  _atom_site_symmetry_multiplicity
  _atom_site_fract_x
  _atom_site_fract_y
  _atom_site_fract_z
  _atom_site_occupancy
  Co  Co1       1.0  0.2500016718940884  0.2500005580815142  0.2499986831039166  1.0000
  Co  Co2       1.0  0.749999784695732  0.7499984107210822  0.7500011752549034  1.0000
  S   S1        1.0  0.9999997612978814  1.6807845761513666e-07  0.9999999895666665  1.0000
  F   F1        1.0  0.2536284854947949  0.2536290386067792  0.7463712942199862  1.0000
  F   F2        1.0  0.7463710532732418  0.7463713588627133  0.25362864670215196  1.0000
  F   F3        1.0  0.7463707705923661  0.2536293002086331  0.2536283187351617  1.0000
  F   F4        1.0  0.25362881722145736  0.7463709105070122  0.7463715862083381  1.0000
  F   F5        1.0  0.25362890430137314  0.7463710247108952  0.25362861187955954  1.0000
  F   F6        1.0  0.7463707512068011  0.2536292140178386  0.7463717102860465  1.0000
