data_image0
_chemical_formula_structural       Co2SCl6
_chemical_formula_sum              "Co2 S1 Cl6"
_cell_length_a       6.687340964319983
_cell_length_b       6.687341030795383
_cell_length_c       6.68734091761096
_cell_angle_alpha    60.00000171883219
_cell_angle_beta     60.000000079215475
_cell_angle_gamma    60.00000015522377

_space_group_name_H-M_alt    "P 1"
_space_group_IT_number       1

loop_
  _space_group_symop_operation_xyz
  'x, y, z'

loop_
  _atom_site_type_symbol
  _atom_site_label
  _atom_site_symmetry_multiplicity
  _atom_site_fract_x
  _atom_site_fract_y
  _atom_site_fract_z
  _atom_site_occupancy
  Co  Co1       1.0  0.25000006810510983  0.2500000693005384  0.24999979430989017  1.0000
  Co  Co2       1.0  0.7500001051845971  0.7499998526027056  0.7499999002448474  1.0000
  S   S1        1.0  2.490693650813217e-08  0.9999999615398087  6.360040863732625e-08  1.0000
  Cl  Cl1       1.0  0.24877309338251818  0.24877325648841866  0.751226902083395  1.0000
  Cl  Cl2       1.0  0.7512268335462141  0.7512267569867184  0.2487732556694546  1.0000
  Cl  Cl3       1.0  0.7512267379118635  0.24877323886370087  0.24877323709860458  1.0000
  Cl  Cl4       1.0  0.24877321960963228  0.7512267398141178  0.7512268046228708  1.0000
  Cl  Cl5       1.0  0.24877321538202687  0.7512268739452231  0.24877320075383555  1.0000
  Cl  Cl6       1.0  0.7512267010278751  0.24877323842754917  0.7512268470136546  1.0000
