data_image0
_chemical_formula_structural       Co2SO6
_chemical_formula_sum              "Co2 S1 O6"
_cell_length_a       4.931446366587837
_cell_length_b       4.931446243180448
_cell_length_c       4.931446597271254
_cell_angle_alpha    59.999998154824695
_cell_angle_beta     59.999997663777776
_cell_angle_gamma    59.99999936797761

_space_group_name_H-M_alt    "P 1"
_space_group_IT_number       1

loop_
  _space_group_symop_operation_xyz
  'x, y, z'

loop_
  _atom_site_type_symbol
  _atom_site_label
  _atom_site_symmetry_multiplicity
  _atom_site_fract_x
  _atom_site_fract_y
  _atom_site_fract_z
  _atom_site_occupancy
  Co  Co1       1.0  0.24999992662482576  0.2499999002896915  0.2500003276389796  1.0000
  Co  Co2       1.0  0.7500006351002639  0.7499991793254669  0.7499998589530371  1.0000
  S   S1        1.0  0.9999999629376608  1.9868327775370993e-08  3.698624173918648e-08  1.0000
  O   O1        1.0  0.2332441977608675  0.23324467040177277  0.7667554930149619  1.0000
  O   O2        1.0  0.7667554975377867  0.7667557230065631  0.23324454289458602  1.0000
  O   O3        1.0  0.7667556072011605  0.2332446373662513  0.2332442717784216  1.0000
  O   O4        1.0  0.23324429873963531  0.7667556790523147  0.7667555066914992  1.0000
  O   O5        1.0  0.23324430079691086  0.7667555451122561  0.23324449670319908  1.0000
  O   O6        1.0  0.7667555232886908  0.2332446024255224  0.7667555653033113  1.0000
