data_image0
_chemical_formula_structural       Co2SeS6
_chemical_formula_sum              "Co2 Se1 S6"
_cell_length_a       6.288008375437298
_cell_length_b       6.2880090708774405
_cell_length_c       6.288008941661775
_cell_angle_alpha    60.00000057073966
_cell_angle_beta     59.99999764251583
_cell_angle_gamma    59.9999983596908

_space_group_name_H-M_alt    "P 1"
_space_group_IT_number       1

loop_
  _space_group_symop_operation_xyz
  'x, y, z'

loop_
  _atom_site_type_symbol
  _atom_site_label
  _atom_site_symmetry_multiplicity
  _atom_site_fract_x
  _atom_site_fract_y
  _atom_site_fract_z
  _atom_site_occupancy
  Co  Co1       1.0  0.24999908030541923  0.24999981720860745  0.25000083515716565  1.0000
  Co  Co2       1.0  0.7500006772773972  0.750000193717167  0.7499995542872085  1.0000
  Se  Se1       1.0  1.1667369910801837e-08  0.9999999980522527  3.8079058961581665e-08  1.0000
  S   S1        1.0  0.24749965953691058  0.2474998885337222  0.7525003618364954  1.0000
  S   S2        1.0  0.752500499488167  0.7524998711327192  0.24750006702007085  1.0000
  S   S3        1.0  0.7525004849144844  0.24749971826733433  0.24749981683203703  1.0000
  S   S4        1.0  0.24749927243571113  0.7525008828256766  0.7524995985747477  1.0000
  S   S5        1.0  0.24749953411815057  0.7525002535655348  0.2475000345164221  1.0000
  S   S6        1.0  0.7525007774007042  0.24749937365413105  0.7524997147883342  1.0000
