data_image0
_chemical_formula_structural       Co2SeF6
_chemical_formula_sum              "Co2 Se1 F6"
_cell_length_a       5.404192088479794
_cell_length_b       5.404191984458622
_cell_length_c       5.404192098690332
_cell_angle_alpha    60.00000232877207
_cell_angle_beta     60.00000168268912
_cell_angle_gamma    60.000001042422696

_space_group_name_H-M_alt    "P 1"
_space_group_IT_number       1

loop_
  _space_group_symop_operation_xyz
  'x, y, z'

loop_
  _atom_site_type_symbol
  _atom_site_label
  _atom_site_symmetry_multiplicity
  _atom_site_fract_x
  _atom_site_fract_y
  _atom_site_fract_z
  _atom_site_occupancy
  Co  Co1       1.0  0.25000017172159683  0.24999987917412103  0.24999969132602604  1.0000
  Co  Co2       1.0  0.7499999604436605  0.7499999684002483  0.7500001074065438  1.0000
  Se  Se1       1.0  0.9999999964820779  0.9999999977337138  2.1396257508103507e-08  1.0000
  F   F1        1.0  0.25566542277229554  0.25566500696669153  0.7443349222742087  1.0000
  F   F2        1.0  0.7443345259387484  0.7443349743186065  0.2556653657842563  1.0000
  F   F3        1.0  0.7443349532828588  0.25566523768542476  0.2556652102813558  1.0000
  F   F4        1.0  0.255664993269269  0.744334782126739  0.7443347616762644  1.0000
  F   F5        1.0  0.25566529450048264  0.7443347436460463  0.2556651285932502  1.0000
  F   F6        1.0  0.7443347900282796  0.25566532375814005  0.7443348208958277  1.0000
