data_image0
_chemical_formula_structural       Co2ScBr6
_chemical_formula_sum              "Co2 Sc1 Br6"
_cell_length_a       7.055780020178129
_cell_length_b       7.055779862506382
_cell_length_c       7.055780006772936
_cell_angle_alpha    60.000000260289056
_cell_angle_beta     60.00000004335059
_cell_angle_gamma    59.99999930569599

_space_group_name_H-M_alt    "P 1"
_space_group_IT_number       1

loop_
  _space_group_symop_operation_xyz
  'x, y, z'

loop_
  _atom_site_type_symbol
  _atom_site_label
  _atom_site_symmetry_multiplicity
  _atom_site_fract_x
  _atom_site_fract_y
  _atom_site_fract_z
  _atom_site_occupancy
  Co  Co1       1.0  0.250000004907411  0.24999985978901093  0.2500000674874107  1.0000
  Co  Co2       1.0  0.749999989572779  0.7499999543006312  0.7500000814267171  1.0000
  Sc  Sc1       1.0  0.9999999987264925  3.8187680984362645e-08  0.9999999588664695  1.0000
  Br  Br1       1.0  0.2583078802870772  0.25830788154846673  0.7416921029054245  1.0000
  Br  Br2       1.0  0.7416921575823573  0.7416921460450283  0.2583078353600468  1.0000
  Br  Br3       1.0  0.7416921242044636  0.25830787296071317  0.258307866316039  1.0000
  Br  Br4       1.0  0.2583078361523621  0.7416921858772486  0.7416920993353368  1.0000
  Br  Br5       1.0  0.25830790053833613  0.7416921893879984  0.25830784185306777  1.0000
  Br  Br6       1.0  0.741692100533229  0.2583078798647861  0.7416921563419145  1.0000
