data_image0
_chemical_formula_structural       Co2SI6
_chemical_formula_sum              "Co2 S1 I6"
_cell_length_a       7.531408711239469
_cell_length_b       7.531408647510584
_cell_length_c       7.531409267479518
_cell_angle_alpha    59.99999636066333
_cell_angle_beta     59.99999561044792
_cell_angle_gamma    59.99999804989641

_space_group_name_H-M_alt    "P 1"
_space_group_IT_number       1

loop_
  _space_group_symop_operation_xyz
  'x, y, z'

loop_
  _atom_site_type_symbol
  _atom_site_label
  _atom_site_symmetry_multiplicity
  _atom_site_fract_x
  _atom_site_fract_y
  _atom_site_fract_z
  _atom_site_occupancy
  Co  Co1       1.0  0.24999998202292703  0.2500000037846636  0.25000000650202936  1.0000
  Co  Co2       1.0  0.7499999571730537  0.7499999918397943  0.7500000024666861  1.0000
  S   S1        1.0  0.9999999884626265  0.9999999886167186  0.9999999955270548  1.0000
  I   I1        1.0  0.2667482052645765  0.26674824383515694  0.7332517673581939  1.0000
  I   I2        1.0  0.7332517819701343  0.7332518054533419  0.2667482252812265  1.0000
  I   I3        1.0  0.7332518245683517  0.26674817040494647  0.2667481846614416  1.0000
  I   I4        1.0  0.266748228656928  0.733251768303105  0.7332518860393733  1.0000
  I   I5        1.0  0.2667482303813266  0.7332517859794843  0.2667480939498199  1.0000
  I   I6        1.0  0.7332517996123782  0.2667482454210016  0.733251841109836  1.0000
