data_image0
_chemical_formula_structural       Co2SeBr6
_chemical_formula_sum              "Co2 Se1 Br6"
_cell_length_a       7.151182450922204
_cell_length_b       7.15118206516894
_cell_length_c       7.151182001627053
_cell_angle_alpha    60.000000901767464
_cell_angle_beta     59.99999941553688
_cell_angle_gamma    60.000002113154345

_space_group_name_H-M_alt    "P 1"
_space_group_IT_number       1

loop_
  _space_group_symop_operation_xyz
  'x, y, z'

loop_
  _atom_site_type_symbol
  _atom_site_label
  _atom_site_symmetry_multiplicity
  _atom_site_fract_x
  _atom_site_fract_y
  _atom_site_fract_z
  _atom_site_occupancy
  Co  Co1       1.0  0.25000066686876654  0.25000032645499143  0.24999957904885706  1.0000
  Co  Co2       1.0  0.7500004930826357  0.7499999312251368  0.7500002079534387  1.0000
  Se  Se1       1.0  0.9999999321826533  0.9999999999999977  1.7128233194535553e-08  1.0000
  Br  Br1       1.0  0.25291221146216214  0.2529124441525655  0.7470876806226256  1.0000
  Br  Br2       1.0  0.7470875509941454  0.7470876850790047  0.2529121771582617  1.0000
  Br  Br3       1.0  0.7470873976702732  0.25291233835989774  0.2529123791587523  1.0000
  Br  Br4       1.0  0.2529120975661159  0.7470875219861284  0.7470877229025766  1.0000
  Br  Br5       1.0  0.25291238741764666  0.7470874091371096  0.25291232335539865  1.0000
  Br  Br6       1.0  0.7470872879654384  0.2529123467374741  0.7470878904939136  1.0000
