data_image0
_chemical_formula_structural       Co2ScF6
_chemical_formula_sum              "Co2 Sc1 F6"
_cell_length_a       5.478777479383788
_cell_length_b       5.478777101566398
_cell_length_c       5.478776914828987
_cell_angle_alpha    60.00000007811511
_cell_angle_beta     60.00000263872434
_cell_angle_gamma    59.99999984120636

_space_group_name_H-M_alt    "P 1"
_space_group_IT_number       1

loop_
  _space_group_symop_operation_xyz
  'x, y, z'

loop_
  _atom_site_type_symbol
  _atom_site_label
  _atom_site_symmetry_multiplicity
  _atom_site_fract_x
  _atom_site_fract_y
  _atom_site_fract_z
  _atom_site_occupancy
  Co  Co1       1.0  0.24999990492059704  0.24999988012353577  0.24999988731073008  1.0000
  Co  Co2       1.0  0.7499999888246464  0.7500001522851623  0.7500002326622223  1.0000
  Sc  Sc1       1.0  0.9999999744532514  1.3412607912449707e-08  6.812471671477136e-08  1.0000
  F   F1        1.0  0.2548592327405393  0.25485908492472353  0.7451408185295547  1.0000
  F   F2        1.0  0.7451408023628767  0.7451409027752821  0.2548590213150959  1.0000
  F   F3        1.0  0.7451409305152311  0.2548591949885006  0.25485919132314927  1.0000
  F   F4        1.0  0.2548590598393873  0.7451407815343294  0.7451408407547284  1.0000
  F   F5        1.0  0.2548592540051731  0.7451409312434899  0.25485915493965333  1.0000
  F   F6        1.0  0.745140755273864  0.2548591212841225  0.7451408205474986  1.0000
