data_image0
_chemical_formula_structural       Co2SeCl6
_chemical_formula_sum              "Co2 Se1 Cl6"
_cell_length_a       6.710804001064388
_cell_length_b       6.710804174872378
_cell_length_c       6.710804703665756
_cell_angle_alpha    59.99999102633573
_cell_angle_beta     59.9999958548982
_cell_angle_gamma    59.999992538541164

_space_group_name_H-M_alt    "P 1"
_space_group_IT_number       1

loop_
  _space_group_symop_operation_xyz
  'x, y, z'

loop_
  _atom_site_type_symbol
  _atom_site_label
  _atom_site_symmetry_multiplicity
  _atom_site_fract_x
  _atom_site_fract_y
  _atom_site_fract_z
  _atom_site_occupancy
  Co  Co1       1.0  0.2500000799776795  0.24999862081825946  0.2499999639605617  1.0000
  Co  Co2       1.0  0.7500003212545869  0.7500010437276851  0.750002887331173  1.0000
  Se  Se1       1.0  0.9999999595898312  4.380084863333693e-08  0.999999762863445  1.0000
  Cl  Cl1       1.0  0.25272051273293256  0.25272026736992526  0.7472798030682133  1.0000
  Cl  Cl2       1.0  0.7472791764830259  0.7472800414135483  0.2527189976548773  1.0000
  Cl  Cl3       1.0  0.7472800203356831  0.25272080046074835  0.2527199049157526  1.0000
  Cl  Cl4       1.0  0.2527193644755663  0.7472797711276877  0.7472793874896263  1.0000
  Cl  Cl5       1.0  0.25272092813577807  0.7472802161829518  0.2527197770399434  1.0000
  Cl  Cl6       1.0  0.7472796117959939  0.25271921293377286  0.7472795150016158  1.0000
