data_image0
_chemical_formula_structural       Co2SiI6
_chemical_formula_sum              "Co2 Si1 I6"
_cell_length_a       7.567741846527901
_cell_length_b       7.56774185773159
_cell_length_c       7.567741207866536
_cell_angle_alpha    59.999999162423705
_cell_angle_beta     60.00000097092937
_cell_angle_gamma    59.99999982733865

_space_group_name_H-M_alt    "P 1"
_space_group_IT_number       1

loop_
  _space_group_symop_operation_xyz
  'x, y, z'

loop_
  _atom_site_type_symbol
  _atom_site_label
  _atom_site_symmetry_multiplicity
  _atom_site_fract_x
  _atom_site_fract_y
  _atom_site_fract_z
  _atom_site_occupancy
  Co  Co1       1.0  0.2500001093607922  0.24999991606382796  0.24999995391453067  1.0000
  Co  Co2       1.0  0.7500000025565982  0.7499998825166584  0.7499999837718597  1.0000
  Si  Si1       1.0  3.852885921326634e-09  1.132862940584297e-08  0.9999999884450472  1.0000
  I   I1        1.0  0.24770577584661507  0.24770582857021364  0.7522941996717805  1.0000
  I   I2        1.0  0.7522942040753915  0.7522942240952384  0.24770581043103718  1.0000
  I   I3        1.0  0.752294179291388  0.24770582636793037  0.24770578336560664  1.0000
  I   I4        1.0  0.24770577262641558  0.7522942279158973  0.7522942425729217  1.0000
  I   I5        1.0  0.2477057504434718  0.7522942535761257  0.2477058074942699  1.0000
  I   I6        1.0  0.7522941896988005  0.2477058314568378  0.752294228778429  1.0000
