data_image0
_chemical_formula_structural       Co2SiSe6
_chemical_formula_sum              "Co2 Si1 Se6"
_cell_length_a       6.416155282725268
_cell_length_b       6.416155428712476
_cell_length_c       6.416155540466989
_cell_angle_alpha    60.000000933980274
_cell_angle_beta     60.00000016836786
_cell_angle_gamma    59.9999990691576

_space_group_name_H-M_alt    "P 1"
_space_group_IT_number       1

loop_
  _space_group_symop_operation_xyz
  'x, y, z'

loop_
  _atom_site_type_symbol
  _atom_site_label
  _atom_site_symmetry_multiplicity
  _atom_site_fract_x
  _atom_site_fract_y
  _atom_site_fract_z
  _atom_site_occupancy
  Co  Co1       1.0  0.24999811292397123  0.25000064753949025  0.2500015652290096  1.0000
  Co  Co2       1.0  0.749999539002875  0.749999720722283  0.7499978497293388  1.0000
  Si  Si1       1.0  1.9767439743150223e-07  0.9999999522788621  0.9999999764560403  1.0000
  Se  Se1       1.0  0.28833586650703347  0.2883360133044524  0.7116636831676371  1.0000
  Se  Se2       1.0  0.7116646367944061  0.7116635322449328  0.28833717375918666  1.0000
  Se  Se3       1.0  0.7116644251886278  0.2883353474956181  0.28833644541900866  1.0000
  Se  Se4       1.0  0.28833661861143783  0.7116644500213439  0.7116638329225349  1.0000
  Se  Se5       1.0  0.2883355525728307  0.7116636930841388  0.28833626166570336  1.0000
  Se  Se6       1.0  0.7116650604772873  0.2883366408183745  0.7116631939265802  1.0000
