data_image0
_chemical_formula_structural       Co2SCl6
_chemical_formula_sum              "Co2 S1 Cl6"
_cell_length_a       6.687920989191705
_cell_length_b       6.687921306977836
_cell_length_c       6.687920602227091
_cell_angle_alpha    60.00000059952645
_cell_angle_beta     60.00000032975901
_cell_angle_gamma    59.99999939531318

_space_group_name_H-M_alt    "P 1"
_space_group_IT_number       1

loop_
  _space_group_symop_operation_xyz
  'x, y, z'

loop_
  _atom_site_type_symbol
  _atom_site_label
  _atom_site_symmetry_multiplicity
  _atom_site_fract_x
  _atom_site_fract_y
  _atom_site_fract_z
  _atom_site_occupancy
  Co  Co1       1.0  0.24999947228401193  0.24999984287938018  0.25000150905846263  1.0000
  Co  Co2       1.0  0.7499993611532794  0.7499993839671754  0.7500011279227183  1.0000
  S   S1        1.0  1.7165813320409396e-07  1.4283975141149345e-07  0.999999588561432  1.0000
  Cl  Cl1       1.0  0.2487632455702594  0.24876351855511092  0.7512361456773062  1.0000
  Cl  Cl2       1.0  0.7512367485127784  0.7512364115025537  0.24876312513599283  1.0000
  Cl  Cl3       1.0  0.7512364214976189  0.2487636764824046  0.24876302871266215  1.0000
  Cl  Cl4       1.0  0.2487635990637346  0.7512370080621201  0.7512363599972732  1.0000
  Cl  Cl5       1.0  0.24876382882722037  0.7512365966382609  0.24876290787288233  1.0000
  Cl  Cl6       1.0  0.7512371563442315  0.24876342132075716  0.7512362047299498  1.0000
