data_image0
_chemical_formula_structural       Co2ScI6
_chemical_formula_sum              "Co2 Sc1 I6"
_cell_length_a       7.746902273956444
_cell_length_b       7.746902177401974
_cell_length_c       7.74690230402612
_cell_angle_alpha    59.99999912395663
_cell_angle_beta     59.999999517124266
_cell_angle_gamma    59.99999893170244

_space_group_name_H-M_alt    "P 1"
_space_group_IT_number       1

loop_
  _space_group_symop_operation_xyz
  'x, y, z'

loop_
  _atom_site_type_symbol
  _atom_site_label
  _atom_site_symmetry_multiplicity
  _atom_site_fract_x
  _atom_site_fract_y
  _atom_site_fract_z
  _atom_site_occupancy
  Co  Co1       1.0  0.25000000047224036  0.2500000774909037  0.2499999400926538  1.0000
  Co  Co2       1.0  0.7499999774365804  0.7500000048162108  0.7500000687259432  1.0000
  Sc  Sc1       1.0  0.9999999886027269  0.9999999984190521  1.8106657322075055e-08  1.0000
  I   I1        1.0  0.25754608284762254  0.25754612561073353  0.7424538926175933  1.0000
  I   I2        1.0  0.7424539456205063  0.74245385867761  0.25754605989874635  1.0000
  I   I3        1.0  0.7424538795517397  0.25754614012811244  0.25754607880570024  1.0000
  I   I4        1.0  0.25754609938268336  0.7424538362554914  0.7424539476092108  1.0000
  I   I5        1.0  0.2575461517410109  0.7424538453541418  0.2575460927498168  1.0000
  I   I6        1.0  0.7424538802506773  0.2575461104771391  0.7424539057950762  1.0000
