data_image0
_chemical_formula_structural       Co2SiS6
_chemical_formula_sum              "Co2 Si1 S6"
_cell_length_a       6.3021772272387615
_cell_length_b       6.3021771841556165
_cell_length_c       6.302177493244721
_cell_angle_alpha    59.99999917953787
_cell_angle_beta     59.99999929889697
_cell_angle_gamma    59.99999791523336

_space_group_name_H-M_alt    "P 1"
_space_group_IT_number       1

loop_
  _space_group_symop_operation_xyz
  'x, y, z'

loop_
  _atom_site_type_symbol
  _atom_site_label
  _atom_site_symmetry_multiplicity
  _atom_site_fract_x
  _atom_site_fract_y
  _atom_site_fract_z
  _atom_site_occupancy
  Co  Co1       1.0  0.24999976102859142  0.24999995990805698  0.2500003237860116  1.0000
  Co  Co2       1.0  0.750000102731507  0.7500002625676357  0.7500004193027903  1.0000
  Si  Si1       1.0  0.9999999344463394  4.275409464338339e-08  0.9999999463429037  1.0000
  S   S1        1.0  0.252316064923291  0.2523163080099436  0.7476839221857223  1.0000
  S   S2        1.0  0.7476836706731396  0.7476839416728973  0.2523161145000853  1.0000
  S   S3        1.0  0.7476839027386665  0.2523161467138061  0.25231625158845317  1.0000
  S   S4        1.0  0.25231589297523394  0.7476837687097522  0.747683730171128  1.0000
  S   S5        1.0  0.252316546731443  0.7476837538474442  0.2523158471564542  1.0000
  S   S6        1.0  0.7476841262721953  0.2523158273168166  0.7476834410115709  1.0000
