data_image0
_chemical_formula_structural       Co2SiO6
_chemical_formula_sum              "Co2 Si1 O6"
_cell_length_a       4.563930006223259
_cell_length_b       4.563930025911647
_cell_length_c       4.5639300228558515
_cell_angle_alpha    59.99999983960521
_cell_angle_beta     60.000000167727904
_cell_angle_gamma    60.00000035595981

_space_group_name_H-M_alt    "P 1"
_space_group_IT_number       1

loop_
  _space_group_symop_operation_xyz
  'x, y, z'

loop_
  _atom_site_type_symbol
  _atom_site_label
  _atom_site_symmetry_multiplicity
  _atom_site_fract_x
  _atom_site_fract_y
  _atom_site_fract_z
  _atom_site_occupancy
  Co  Co1       1.0  0.2500001496384053  0.24999967863025882  0.2500004407098161  1.0000
  Co  Co2       1.0  0.7500001636717233  0.7499997094571142  0.7500003829960411  1.0000
  Si  Si1       1.0  0.9999983045311617  2.8928466600974964e-06  0.9999962483267175  1.0000
  O   O1        1.0  0.26873697381362965  0.2687373748378292  0.7312625141279219  1.0000
  O   O2        1.0  0.7312619918131759  0.7312623674756638  0.26873755519182063  1.0000
  O   O3        1.0  0.7312620065852864  0.2687380535843961  0.2687374632616901  1.0000
  O   O4        1.0  0.268737091169491  0.7312630304947061  0.7312624628977527  1.0000
  O   O5        1.0  0.26873916090456884  0.7312608931813055  0.2687389874681931  1.0000
  O   O6        1.0  0.7312641628332208  0.268735991171442  0.7312639361261853  1.0000
