data_image0
_chemical_formula_structural       Co2SiF6
_chemical_formula_sum              "Co2 Si1 F6"
_cell_length_a       5.1618213311741545
_cell_length_b       5.161821607363929
_cell_length_c       5.161821011834423
_cell_angle_alpha    59.999999392842554
_cell_angle_beta     59.999999395378545
_cell_angle_gamma    59.99999843132081

_space_group_name_H-M_alt    "P 1"
_space_group_IT_number       1

loop_
  _space_group_symop_operation_xyz
  'x, y, z'

loop_
  _atom_site_type_symbol
  _atom_site_label
  _atom_site_symmetry_multiplicity
  _atom_site_fract_x
  _atom_site_fract_y
  _atom_site_fract_z
  _atom_site_occupancy
  Co  Co1       1.0  0.24999989955512328  0.25000026694670135  0.24999971625500184  1.0000
  Co  Co2       1.0  0.7499998572371008  0.7499998754874702  0.7500003458218228  1.0000
  Si  Si1       1.0  4.724843961341414e-08  0.9999999857638052  0.9999999815565763  1.0000
  F   F1        1.0  0.23172936485814483  0.2317291863665548  0.7682707445764116  1.0000
  F   F2        1.0  0.7682706891646892  0.7682707757424921  0.23172916218263012  1.0000
  F   F3        1.0  0.7682708078920581  0.23172929855696742  0.2317292283402029  1.0000
  F   F4        1.0  0.23172932799653942  0.7682706327069843  0.7682708195163733  1.0000
  F   F5        1.0  0.23172923606962287  0.7682706494927031  0.23172930641128306  1.0000
  F   F6        1.0  0.7682707900701721  0.231729288889351  0.7682707210805155  1.0000
