data_image0
_chemical_formula_structural       Co2TiI6
_chemical_formula_sum              "Co2 Ti1 I6"
_cell_length_a       7.72345176594542
_cell_length_b       7.723451883496323
_cell_length_c       7.723451778433624
_cell_angle_alpha    59.99999924977086
_cell_angle_beta     59.99999949007726
_cell_angle_gamma    60.000000139192494

_space_group_name_H-M_alt    "P 1"
_space_group_IT_number       1

loop_
  _space_group_symop_operation_xyz
  'x, y, z'

loop_
  _atom_site_type_symbol
  _atom_site_label
  _atom_site_symmetry_multiplicity
  _atom_site_fract_x
  _atom_site_fract_y
  _atom_site_fract_z
  _atom_site_occupancy
  Co  Co1       1.0  0.24999998020036224  0.2499999131194341  0.2500000386586529  1.0000
  Co  Co2       1.0  0.7500000362354268  0.7499999772205094  0.7500000359764601  1.0000
  Ti  Ti1       1.0  0.9999999766983512  0.9999999936570082  0.9999999733900685  1.0000
  I   I1        1.0  0.24709488556787007  0.24709490553995558  0.7529050899024136  1.0000
  I   I2        1.0  0.752905071500838  0.7529051449605416  0.24709486571379458  1.0000
  I   I3        1.0  0.7529050963641517  0.24709495018135866  0.2470948856049738  1.0000
  I   I4        1.0  0.24709487283083817  0.7529051177623663  0.7529051121958256  1.0000
  I   I5        1.0  0.24709494438821022  0.752905125357738  0.24709486986678078  1.0000
  I   I6        1.0  0.7529051331920117  0.24709487757031706  0.7529051321443954  1.0000
