data_image0
_chemical_formula_structural       Co2TiCl6
_chemical_formula_sum              "Co2 Ti1 Cl6"
_cell_length_a       6.585219090751259
_cell_length_b       6.585219046787215
_cell_length_c       6.585219129711025
_cell_angle_alpha    59.99999976771378
_cell_angle_beta     60.00000041383323
_cell_angle_gamma    60.00000025751844

_space_group_name_H-M_alt    "P 1"
_space_group_IT_number       1

loop_
  _space_group_symop_operation_xyz
  'x, y, z'

loop_
  _atom_site_type_symbol
  _atom_site_label
  _atom_site_symmetry_multiplicity
  _atom_site_fract_x
  _atom_site_fract_y
  _atom_site_fract_z
  _atom_site_occupancy
  Co  Co1       1.0  0.25000013213791833  0.24999998138528742  0.25000006700360433  1.0000
  Co  Co2       1.0  0.7500000329494655  0.7499999088189153  0.7500000465887314  1.0000
  Ti  Ti1       1.0  0.9999999930742239  2.6037749222237246e-08  4.8149002809372344e-08  1.0000
  Cl  Cl1       1.0  0.25061740759044615  0.25061746836470317  0.7493824921978522  1.0000
  Cl  Cl2       1.0  0.7493825483169121  0.7493826022439043  0.25061747026008685  1.0000
  Cl  Cl3       1.0  0.7493825437409399  0.2506174242692876  0.2506173982972589  1.0000
  Cl  Cl4       1.0  0.2506174782514516  0.7493825217300915  0.7493824916797701  1.0000
  Cl  Cl5       1.0  0.2506174101309475  0.7493825906510779  0.25061742434634543  1.0000
  Cl  Cl6       1.0  0.7493824553221154  0.2506174725181721  0.7493825657986865  1.0000
