data_image0
_chemical_formula_structural       Co2TiBr6
_chemical_formula_sum              "Co2 Ti1 Br6"
_cell_length_a       7.08914408951899
_cell_length_b       7.089144247519941
_cell_length_c       7.089144267050241
_cell_angle_alpha    59.999999830357
_cell_angle_beta     59.99999693545077
_cell_angle_gamma    59.99999829538616

_space_group_name_H-M_alt    "P 1"
_space_group_IT_number       1

loop_
  _space_group_symop_operation_xyz
  'x, y, z'

loop_
  _atom_site_type_symbol
  _atom_site_label
  _atom_site_symmetry_multiplicity
  _atom_site_fract_x
  _atom_site_fract_y
  _atom_site_fract_z
  _atom_site_occupancy
  Co  Co1       1.0  0.2500001136845446  0.24999999463289443  0.2500000820315248  1.0000
  Co  Co2       1.0  0.7499998312300635  0.749999983898689  0.7500001286059881  1.0000
  Ti  Ti1       1.0  0.9999999996047807  2.073161125910301e-08  0.9999999517454018  1.0000
  Br  Br1       1.0  0.24855464153164947  0.24855461639493273  0.7514453050381119  1.0000
  Br  Br2       1.0  0.7514453682566757  0.7514453483155732  0.24855461346826468  1.0000
  Br  Br3       1.0  0.7514453419294694  0.248554606070012  0.24855461298941262  1.0000
  Br  Br4       1.0  0.24855468857351454  0.7514453258154424  0.7514453736388896  1.0000
  Br  Br5       1.0  0.24855465330955384  0.7514454118506636  0.24855458658966514  1.0000
  Br  Br6       1.0  0.7514453565916183  0.24855468934295238  0.7514453510763973  1.0000
