data_image0
_chemical_formula_structural       Co2VCl6
_chemical_formula_sum              "Co2 V1 Cl6"
_cell_length_a       6.549988798772675
_cell_length_b       6.549988743654723
_cell_length_c       6.549988834889814
_cell_angle_alpha    59.99999984650597
_cell_angle_beta     60.000000616639426
_cell_angle_gamma    59.99999999695044

_space_group_name_H-M_alt    "P 1"
_space_group_IT_number       1

loop_
  _space_group_symop_operation_xyz
  'x, y, z'

loop_
  _atom_site_type_symbol
  _atom_site_label
  _atom_site_symmetry_multiplicity
  _atom_site_fract_x
  _atom_site_fract_y
  _atom_site_fract_z
  _atom_site_occupancy
  Co  Co1       1.0  0.2499995323227021  0.2500004587747362  0.24999995196969502  1.0000
  Co  Co2       1.0  0.7500000326576093  0.749999829964283  0.7499999997940705  1.0000
  V   V1        1.0  1.9926641360492638e-08  0.9999999719523592  3.917506340916287e-08  1.0000
  Cl  Cl1       1.0  0.24932719655211044  0.24932719408777324  0.7506727938043842  1.0000
  Cl  Cl2       1.0  0.7506729618581708  0.7506726365397811  0.2493272643462297  1.0000
  Cl  Cl3       1.0  0.7506729122116741  0.24932724695284397  0.24932712344143987  1.0000
  Cl  Cl4       1.0  0.24932723775679314  0.7506726565985764  0.7506729223155102  1.0000
  Cl  Cl5       1.0  0.24932722409092312  0.7506727648168494  0.24932717159197765  1.0000
  Cl  Cl6       1.0  0.7506728844385371  0.24932724718544833  0.7506727261550252  1.0000
