data_image0
_chemical_formula_structural       Co2VI6
_chemical_formula_sum              "Co2 V1 I6"
_cell_length_a       7.571094709556839
_cell_length_b       7.571094690375673
_cell_length_c       7.571094728153945
_cell_angle_alpha    60.00000032827245
_cell_angle_beta     60.00000016657979
_cell_angle_gamma    60.00000049075181

_space_group_name_H-M_alt    "P 1"
_space_group_IT_number       1

loop_
  _space_group_symop_operation_xyz
  'x, y, z'

loop_
  _atom_site_type_symbol
  _atom_site_label
  _atom_site_symmetry_multiplicity
  _atom_site_fract_x
  _atom_site_fract_y
  _atom_site_fract_z
  _atom_site_occupancy
  Co  Co1       1.0  0.24999993414493707  0.25000003094432505  0.2500000407710424  1.0000
  Co  Co2       1.0  0.7499999204100747  0.7500000912153161  0.7499999545068498  1.0000
  V   V1        1.0  0.9999999948853501  1.6176589966852053e-09  2.816475454088983e-08  1.0000
  I   I1        1.0  0.24738234718788432  0.24738226646387024  0.7526176815955048  1.0000
  I   I2        1.0  0.752617684024815  0.7526176826062702  0.24738231718154555  1.0000
  I   I3        1.0  0.7526177082734039  0.24738227370997393  0.24738231511181044  1.0000
  I   I4        1.0  0.24738237068131896  0.7526176510952833  0.7526176745682955  1.0000
  I   I5        1.0  0.2473823359104273  0.7526176875666963  0.2473823071896476  1.0000
  I   I6        1.0  0.7526177028037275  0.24738232135682342  0.752617675080554  1.0000
