data_image0
_chemical_formula_structural       Co2VBr6
_chemical_formula_sum              "Co2 V1 Br6"
_cell_length_a       7.027117830113774
_cell_length_b       7.0271179100832555
_cell_length_c       7.027117863885686
_cell_angle_alpha    60.00000029854057
_cell_angle_beta     60.00000124073929
_cell_angle_gamma    60.000002384419524

_space_group_name_H-M_alt    "P 1"
_space_group_IT_number       1

loop_
  _space_group_symop_operation_xyz
  'x, y, z'

loop_
  _atom_site_type_symbol
  _atom_site_label
  _atom_site_symmetry_multiplicity
  _atom_site_fract_x
  _atom_site_fract_y
  _atom_site_fract_z
  _atom_site_occupancy
  Co  Co1       1.0  0.250000011229437  0.25000014394785663  0.2500000316620262  1.0000
  Co  Co2       1.0  0.7499997779891611  0.7499998235771882  0.7500002466263114  1.0000
  V   V1        1.0  0.9999999719658135  5.228650308118519e-09  0.999999992903007  1.0000
  Br  Br1       1.0  0.24697486525571946  0.24697482691096379  0.7530251547045508  1.0000
  Br  Br2       1.0  0.7530251746928203  0.7530251475856216  0.24697479835097177  1.0000
  Br  Br3       1.0  0.7530251407205438  0.24697489434531747  0.24697477337192303  1.0000
  Br  Br4       1.0  0.24697494741063925  0.7530251672954491  0.7530251063279537  1.0000
  Br  Br5       1.0  0.2469749332791861  0.7530251241920047  0.24697474716470713  1.0000
  Br  Br6       1.0  0.7530251752853148  0.24697487121918535  0.7530251525871817  1.0000
