data_image0
_chemical_formula_structural       Co2ZnI6
_chemical_formula_sum              "Co2 Zn1 I6"
_cell_length_a       7.500446389627526
_cell_length_b       7.5004464323699676
_cell_length_c       7.500446386488178
_cell_angle_alpha    59.99999973767035
_cell_angle_beta     60.000000034895066
_cell_angle_gamma    59.99999970493796

_space_group_name_H-M_alt    "P 1"
_space_group_IT_number       1

loop_
  _space_group_symop_operation_xyz
  'x, y, z'

loop_
  _atom_site_type_symbol
  _atom_site_label
  _atom_site_symmetry_multiplicity
  _atom_site_fract_x
  _atom_site_fract_y
  _atom_site_fract_z
  _atom_site_occupancy
  Co  Co1       1.0  0.2500000151591271  0.2500000028145013  0.24999998307620167  1.0000
  Co  Co2       1.0  0.7500000364431233  0.7499999708868963  0.7500000231876892  1.0000
  Zn  Zn1       1.0  0.9999999633159198  1.30631678787701e-08  1.0477202114802974e-08  1.0000
  I   I1        1.0  0.2577263321322294  0.2577263707142806  0.7422736481808604  1.0000
  I   I2        1.0  0.742273664746721  0.7422736470753086  0.2577263367355047  1.0000
  I   I3        1.0  0.7422736821921572  0.25772632973743437  0.25772630407660146  1.0000
  I   I4        1.0  0.2577263156046392  0.7422736668245075  0.7422736669960929  1.0000
  I   I5        1.0  0.25772631653521993  0.7422736775800185  0.25772634320312904  1.0000
  I   I6        1.0  0.7422736724754337  0.2577263222477149  0.7422736866264079  1.0000
