data_image0
_chemical_formula_structural       Co2ZnF6
_chemical_formula_sum              "Co2 Zn1 F6"
_cell_length_a       5.196423536057252
_cell_length_b       5.196423576140962
_cell_length_c       5.196423616608913
_cell_angle_alpha    59.99999781943848
_cell_angle_beta     59.99999893393913
_cell_angle_gamma    59.999999727457805

_space_group_name_H-M_alt    "P 1"
_space_group_IT_number       1

loop_
  _space_group_symop_operation_xyz
  'x, y, z'

loop_
  _atom_site_type_symbol
  _atom_site_label
  _atom_site_symmetry_multiplicity
  _atom_site_fract_x
  _atom_site_fract_y
  _atom_site_fract_z
  _atom_site_occupancy
  Co  Co1       1.0  0.2500001776926554  0.2500000467084179  0.24999986227882617  1.0000
  Co  Co2       1.0  0.7500000511544522  0.7499998926507802  0.7500001978587372  1.0000
  Zn  Zn1       1.0  3.4791194173452634e-08  0.9999999622896049  5.149401286914024e-08  1.0000
  F   F1        1.0  0.2567476857398839  0.2567477864321567  0.7432522443665577  1.0000
  F   F2        1.0  0.7432521653451868  0.7432523862601101  0.2567475569886088  1.0000
  F   F3        1.0  0.7432521712547834  0.25674779836935496  0.2567477622138883  1.0000
  F   F4        1.0  0.2567477340852308  0.7432521315622439  0.743252331607391  1.0000
  F   F5        1.0  0.25674771009795627  0.7432523249885957  0.2567477860275591  1.0000
  F   F6        1.0  0.7432522449794434  0.25674771571728744  0.743252229462284  1.0000
