data_image0
_chemical_formula_structural       Co2ZnBr6
_chemical_formula_sum              "Co2 Zn1 Br6"
_cell_length_a       6.912496654961523
_cell_length_b       6.912496673242896
_cell_length_c       6.912496556324754
_cell_angle_alpha    60.00000109156924
_cell_angle_beta     60.000000218690545
_cell_angle_gamma    60.000000371260775

_space_group_name_H-M_alt    "P 1"
_space_group_IT_number       1

loop_
  _space_group_symop_operation_xyz
  'x, y, z'

loop_
  _atom_site_type_symbol
  _atom_site_label
  _atom_site_symmetry_multiplicity
  _atom_site_fract_x
  _atom_site_fract_y
  _atom_site_fract_z
  _atom_site_occupancy
  Co  Co1       1.0  0.24999980980908265  0.2499999901885856  0.25000004148074995  1.0000
  Co  Co2       1.0  0.7500000539424687  0.7499998660305222  0.7500002130961902  1.0000
  Zn  Zn1       1.0  0.99999999421277  0.9999999822821635  4.5192565742082576e-09  1.0000
  Br  Br1       1.0  0.25684121431335316  0.2568412365775487  0.7431587785205636  1.0000
  Br  Br2       1.0  0.7431587770816197  0.7431587879610039  0.2568411226498868  1.0000
  Br  Br3       1.0  0.7431588574928077  0.2568412883991994  0.25684112974751444  1.0000
  Br  Br4       1.0  0.2568411933291867  0.7431587733468101  0.7431587910984973  1.0000
  Br  Br5       1.0  0.2568412857719735  0.7431588355040162  0.256841147835425  1.0000
  Br  Br6       1.0  0.7431588103375443  0.25684124573161343  0.7431587738950878  1.0000
