data_image0
_chemical_formula_structural       Co2ZnCl6
_chemical_formula_sum              "Co2 Zn1 Cl6"
_cell_length_a       6.41719487038586
_cell_length_b       6.4171949014019685
_cell_length_c       6.417194919611175
_cell_angle_alpha    59.9999999979872
_cell_angle_beta     60.000000155413346
_cell_angle_gamma    60.000000282522265

_space_group_name_H-M_alt    "P 1"
_space_group_IT_number       1

loop_
  _space_group_symop_operation_xyz
  'x, y, z'

loop_
  _atom_site_type_symbol
  _atom_site_label
  _atom_site_symmetry_multiplicity
  _atom_site_fract_x
  _atom_site_fract_y
  _atom_site_fract_z
  _atom_site_occupancy
  Co  Co1       1.0  0.2500001558694125  0.24999993623502634  0.2499999767410699  1.0000
  Co  Co2       1.0  0.7500000775001354  0.7500001045281876  0.7499999430828137  1.0000
  Zn  Zn1       1.0  0.9999999867681251  1.9085361520853378e-09  2.591974185101287e-08  1.0000
  Cl  Cl1       1.0  0.25661573323145015  0.256615703018179  0.743384265765988  1.0000
  Cl  Cl2       1.0  0.7433842390276711  0.7433843167511364  0.2566156782365618  1.0000
  Cl  Cl3       1.0  0.7433842359288634  0.2566156735849614  0.2566157529967067  1.0000
  Cl  Cl4       1.0  0.25661570145279183  0.7433842564831528  0.7433842766698758  1.0000
  Cl  Cl5       1.0  0.25661565107052997  0.743384304442306  0.25661577090435544  1.0000
  Cl  Cl6       1.0  0.7433842146069892  0.2566157057843281  0.7433843090759993  1.0000
