data_image0
_chemical_formula_structural       Cr2AuCl6
_chemical_formula_sum              "Cr2 Au1 Cl6"
_cell_length_a       6.694573956557424
_cell_length_b       6.694573778649557
_cell_length_c       6.69457381830671
_cell_angle_alpha    60.00000000632761
_cell_angle_beta     59.99999945017963
_cell_angle_gamma    59.999999733542765

_space_group_name_H-M_alt    "P 1"
_space_group_IT_number       1

loop_
  _space_group_symop_operation_xyz
  'x, y, z'

loop_
  _atom_site_type_symbol
  _atom_site_label
  _atom_site_symmetry_multiplicity
  _atom_site_fract_x
  _atom_site_fract_y
  _atom_site_fract_z
  _atom_site_occupancy
  Cr  Cr1       1.0  0.2500000324066459  0.25000009969417264  0.2499998947850584  1.0000
  Cr  Cr2       1.0  0.7499999985968713  0.7499999533147543  0.7500001246376622  1.0000
  Au  Au1       1.0  0.9999999765668216  0.9999999926821634  0.9999999795255782  1.0000
  Cl  Cl1       1.0  0.25615275437483015  0.2561527698000682  0.743847279488902  1.0000
  Cl  Cl2       1.0  0.743847257691455  0.7438472210072502  0.2561527521220447  1.0000
  Cl  Cl3       1.0  0.7438472243846297  0.25615282260518835  0.2561527285111127  1.0000
  Cl  Cl4       1.0  0.25615275621619266  0.7438471901556385  0.7438472540809172  1.0000
  Cl  Cl5       1.0  0.2561527638927636  0.7438472215248233  0.25615276757465655  1.0000
  Cl  Cl6       1.0  0.743847238051748  0.25615272720493587  0.7438472244110858  1.0000
