data_image0
_chemical_formula_structural       Cr2AuF6
_chemical_formula_sum              "Cr2 Au1 F6"
_cell_length_a       5.704214196594553
_cell_length_b       5.704213821567722
_cell_length_c       5.704214168803665
_cell_angle_alpha    59.99999861015934
_cell_angle_beta     59.999999349599946
_cell_angle_gamma    59.999998263164755

_space_group_name_H-M_alt    "P 1"
_space_group_IT_number       1

loop_
  _space_group_symop_operation_xyz
  'x, y, z'

loop_
  _atom_site_type_symbol
  _atom_site_label
  _atom_site_symmetry_multiplicity
  _atom_site_fract_x
  _atom_site_fract_y
  _atom_site_fract_z
  _atom_site_occupancy
  Cr  Cr1       1.0  0.25000005113101775  0.24999987791173586  0.2499998309938387  1.0000
  Cr  Cr2       1.0  0.749999987986617  0.7500000631528103  0.7499998518410955  1.0000
  Au  Au1       1.0  1.2279423621108598e-10  0.9999999935587359  0.9999999978999653  1.0000
  F   F1        1.0  0.2568097587456393  0.25680973541207835  0.7431903544457404  1.0000
  F   F2        1.0  0.7431902105425785  0.74319029368308  0.2568097821043193  1.0000
  F   F3        1.0  0.7431903296085632  0.25680970373581724  0.25680980027241296  1.0000
  F   F4        1.0  0.2568097176658291  0.7431903403889567  0.7431902406832356  1.0000
  F   F5        1.0  0.256809735864491  0.7431902066324023  0.25680979487357297  1.0000
  F   F6        1.0  0.7431902051257521  0.2568097494617639  0.7431903414863643  1.0000
