data_image0
_chemical_formula_structural       Cr2AgI6
_chemical_formula_sum              "Cr2 Ag1 I6"
_cell_length_a       7.59413539496589
_cell_length_b       7.594135335850088
_cell_length_c       7.59413536497335
_cell_angle_alpha    59.99999982736651
_cell_angle_beta     59.99999968398965
_cell_angle_gamma    60.00000088106335

_space_group_name_H-M_alt    "P 1"
_space_group_IT_number       1

loop_
  _space_group_symop_operation_xyz
  'x, y, z'

loop_
  _atom_site_type_symbol
  _atom_site_label
  _atom_site_symmetry_multiplicity
  _atom_site_fract_x
  _atom_site_fract_y
  _atom_site_fract_z
  _atom_site_occupancy
  Cr  Cr1       1.0  0.2500000181108096  0.250000020449909  0.24999997814500297  1.0000
  Cr  Cr2       1.0  0.7499999379141538  0.7500000000651907  0.7500001075619733  1.0000
  Ag  Ag1       1.0  6.342944244172029e-09  1.2902007320213926e-08  0.9999999377053  1.0000
  I   I1        1.0  0.2601904395502497  0.2601904361706923  0.7398095512986868  1.0000
  I   I2        1.0  0.7398095842075364  0.7398095408001336  0.2601904130191498  1.0000
  I   I3        1.0  0.7398095386740621  0.260190477617025  0.260190419454484  1.0000
  I   I4        1.0  0.2601904286085082  0.7398095638638368  0.7398095816669165  1.0000
  I   I5        1.0  0.2601904671855652  0.7398095504012029  0.2601904413286209  1.0000
  I   I6        1.0  0.7398095819914707  0.26019039592735604  0.7398095769561427  1.0000
