data_image0
_chemical_formula_structural       Cr2AuBr6
_chemical_formula_sum              "Cr2 Au1 Br6"
_cell_length_a       7.07010036022458
_cell_length_b       7.07010042754502
_cell_length_c       7.070100307154046
_cell_angle_alpha    59.99999996887454
_cell_angle_beta     60.00000080952523
_cell_angle_gamma    60.00000002021779

_space_group_name_H-M_alt    "P 1"
_space_group_IT_number       1

loop_
  _space_group_symop_operation_xyz
  'x, y, z'

loop_
  _atom_site_type_symbol
  _atom_site_label
  _atom_site_symmetry_multiplicity
  _atom_site_fract_x
  _atom_site_fract_y
  _atom_site_fract_z
  _atom_site_occupancy
  Cr  Cr1       1.0  0.2500000523600964  0.24999998188320335  0.24999995260714564  1.0000
  Cr  Cr2       1.0  0.7499999933623452  0.7499999664370632  0.750000045268063  1.0000
  Au  Au1       1.0  1.7206808841957187e-08  0.9999999826771221  0.9999999873283709  1.0000
  Br  Br1       1.0  0.2580315070204605  0.2580315080904134  0.7419684941967698  1.0000
  Br  Br2       1.0  0.7419684708314616  0.7419685164505164  0.25803150516099466  1.0000
  Br  Br3       1.0  0.7419685000346504  0.2580314967001444  0.2580314893374106  1.0000
  Br  Br4       1.0  0.25803147012954664  0.7419685313053611  0.7419685177895569  1.0000
  Br  Br5       1.0  0.2580314945039537  0.7419685234666005  0.2580314858082382  1.0000
  Br  Br6       1.0  0.7419684882476183  0.25803150107432915  0.7419685266581796  1.0000
