data_image0
_chemical_formula_structural       Cr2AgCl6
_chemical_formula_sum              "Cr2 Ag1 Cl6"
_cell_length_a       6.658992300443404
_cell_length_b       6.658992199306292
_cell_length_c       6.658992240321662
_cell_angle_alpha    60.00000147430153
_cell_angle_beta     60.00000030052065
_cell_angle_gamma    60.00000020022063

_space_group_name_H-M_alt    "P 1"
_space_group_IT_number       1

loop_
  _space_group_symop_operation_xyz
  'x, y, z'

loop_
  _atom_site_type_symbol
  _atom_site_label
  _atom_site_symmetry_multiplicity
  _atom_site_fract_x
  _atom_site_fract_y
  _atom_site_fract_z
  _atom_site_occupancy
  Cr  Cr1       1.0  0.2500000153808306  0.24999996465606653  0.25000002064001725  1.0000
  Cr  Cr2       1.0  0.7500000433565697  0.7499999491452338  0.7499999005689103  1.0000
  Ag  Ag1       1.0  0.9999999916453283  0.9999999834468883  0.9999999779141305  1.0000
  Cl  Cl1       1.0  0.25789160308499  0.2578915686417431  0.742108441390154  1.0000
  Cl  Cl2       1.0  0.7421084032612947  0.7421084555136349  0.2578916700896893  1.0000
  Cl  Cl3       1.0  0.7421083822947537  0.25789158058687983  0.2578915612596546  1.0000
  Cl  Cl4       1.0  0.25789152857376124  0.7421084490861996  0.7421084540377217  1.0000
  Cl  Cl5       1.0  0.2578915733562826  0.7421084343607209  0.2578915569897902  1.0000
  Cl  Cl6       1.0  0.7421084650082539  0.2578916081870004  0.7421084166551005  1.0000
