data_image0
_chemical_formula_structural       Cr2AgF6
_chemical_formula_sum              "Cr2 Ag1 F6"
_cell_length_a       5.639803957828563
_cell_length_b       5.639804194923906
_cell_length_c       5.639803976875612
_cell_angle_alpha    60.00000107572876
_cell_angle_beta     60.000001736401536
_cell_angle_gamma    60.000001755785945

_space_group_name_H-M_alt    "P 1"
_space_group_IT_number       1

loop_
  _space_group_symop_operation_xyz
  'x, y, z'

loop_
  _atom_site_type_symbol
  _atom_site_label
  _atom_site_symmetry_multiplicity
  _atom_site_fract_x
  _atom_site_fract_y
  _atom_site_fract_z
  _atom_site_occupancy
  Cr  Cr1       1.0  0.24999997870307922  0.2500001764455318  0.24999976268429774  1.0000
  Cr  Cr2       1.0  0.7499999724945026  0.7500000885000006  0.7500000310774974  1.0000
  Ag  Ag1       1.0  5.999594325251009e-08  0.9999999674258683  0.9999999419613134  1.0000
  F   F1        1.0  0.2625448745253048  0.26254488277249743  0.7374551960933351  1.0000
  F   F2        1.0  0.7374551234790633  0.7374550390588411  0.262544852208841  1.0000
  F   F3        1.0  0.7374550803191082  0.2625447841676205  0.26254494936071576  1.0000
  F   F4        1.0  0.2625449079875989  0.7374550377697124  0.7374551643759613  1.0000
  F   F5        1.0  0.26254484259883615  0.7374551029853694  0.2625449174074721  1.0000
  F   F6        1.0  0.7374551476700514  0.2625448666213628  0.7374551356983052  1.0000
