data_image0
_chemical_formula_structural       Cr2AgBr6
_chemical_formula_sum              "Cr2 Ag1 Br6"
_cell_length_a       7.066880835503071
_cell_length_b       7.066880870595566
_cell_length_c       7.066880913096143
_cell_angle_alpha    59.999999322739704
_cell_angle_beta     59.99999890557994
_cell_angle_gamma    59.99999912912682

_space_group_name_H-M_alt    "P 1"
_space_group_IT_number       1

loop_
  _space_group_symop_operation_xyz
  'x, y, z'

loop_
  _atom_site_type_symbol
  _atom_site_label
  _atom_site_symmetry_multiplicity
  _atom_site_fract_x
  _atom_site_fract_y
  _atom_site_fract_z
  _atom_site_occupancy
  Cr  Cr1       1.0  0.24999998548384392  0.2499999391072239  0.25000010383015  1.0000
  Cr  Cr2       1.0  0.7500000367109206  0.7499999784978338  0.7500001568114388  1.0000
  Ag  Ag1       1.0  0.9999999902783466  2.4263078319359643e-08  0.999999968673413  1.0000
  Br  Br1       1.0  0.25807806297725266  0.2580780835303823  0.7419219069683524  1.0000
  Br  Br2       1.0  0.7419219186969388  0.7419219311269891  0.2580780438121299  1.0000
  Br  Br3       1.0  0.7419219369552357  0.25807810260127984  0.2580780036543127  1.0000
  Br  Br4       1.0  0.2580780604638649  0.7419219432514779  0.7419218911098385  1.0000
  Br  Br5       1.0  0.25807807784409215  0.74192191160968  0.2580780381207354  1.0000
  Br  Br6       1.0  0.7419219171991341  0.25807808744999816  0.741921891133253  1.0000
