data_image0
_chemical_formula_structural       Cr2AuI6
_chemical_formula_sum              "Cr2 Au1 I6"
_cell_length_a       7.658076303423523
_cell_length_b       7.65807624626821
_cell_length_c       7.658076314822842
_cell_angle_alpha    59.999999974153205
_cell_angle_beta     59.999999857537354
_cell_angle_gamma    60.000000483095874

_space_group_name_H-M_alt    "P 1"
_space_group_IT_number       1

loop_
  _space_group_symop_operation_xyz
  'x, y, z'

loop_
  _atom_site_type_symbol
  _atom_site_label
  _atom_site_symmetry_multiplicity
  _atom_site_fract_x
  _atom_site_fract_y
  _atom_site_fract_z
  _atom_site_occupancy
  Cr  Cr1       1.0  0.24999996284277712  0.2500000179159411  0.2500000494675193  1.0000
  Cr  Cr2       1.0  0.750000028436869  0.7499999913756976  0.7499999699125787  1.0000
  Au  Au1       1.0  0.9999999937100164  0.9999999872057176  0.9999999990956453  1.0000
  I   I1        1.0  0.2611833786666328  0.261183346756877  0.738816627867291  1.0000
  I   I2        1.0  0.7388166489836374  0.7388166529390503  0.261183359843997  1.0000
  I   I3        1.0  0.7388166371551738  0.2611833542215665  0.26118337732353963  1.0000
  I   I4        1.0  0.2611833458850375  0.7388166390772194  0.7388166371971596  1.0000
  I   I5        1.0  0.2611833493601596  0.7388166390447976  0.2611833605344096  1.0000
  I   I6        1.0  0.7388166560229672  0.261183368647556  0.7388166160308836  1.0000
