data_image0
_chemical_formula_structural       Cr2BeBr6
_chemical_formula_sum              "Cr2 Be1 Br6"
_cell_length_a       6.859867716728972
_cell_length_b       6.8598677163867885
_cell_length_c       6.859867862854876
_cell_angle_alpha    59.99999932660577
_cell_angle_beta     59.999999499445025
_cell_angle_gamma    60.00000025696282

_space_group_name_H-M_alt    "P 1"
_space_group_IT_number       1

loop_
  _space_group_symop_operation_xyz
  'x, y, z'

loop_
  _atom_site_type_symbol
  _atom_site_label
  _atom_site_symmetry_multiplicity
  _atom_site_fract_x
  _atom_site_fract_y
  _atom_site_fract_z
  _atom_site_occupancy
  Cr  Cr1       1.0  0.2500001699350468  0.2500000556791956  0.24999983058017006  1.0000
  Cr  Cr2       1.0  0.7499999260375046  0.7499999438654802  0.7500001984232177  1.0000
  Be  Be1       1.0  2.7340739921188213e-08  0.9999999785754784  1.3077185152946954e-08  1.0000
  Br  Br1       1.0  0.24628782710086233  0.24628779285715596  0.7537121958769707  1.0000
  Br  Br2       1.0  0.7537121560576017  0.7537122673903306  0.24628774110397933  1.0000
  Br  Br3       1.0  0.7537121848168701  0.24628781649686585  0.24628776184015108  1.0000
  Br  Br4       1.0  0.24628777254998324  0.75371215448178  0.7537122151779762  1.0000
  Br  Br5       1.0  0.24628780777375814  0.7537121618253412  0.24628779744953966  1.0000
  Br  Br6       1.0  0.7537121323519719  0.24628783057782627  0.753712248906836  1.0000
