data_image0
_chemical_formula_structural       Cr2BeCl6
_chemical_formula_sum              "Cr2 Be1 Cl6"
_cell_length_a       6.35705905457345
_cell_length_b       6.3570588674938175
_cell_length_c       6.35705889350803
_cell_angle_alpha    60.000000448300476
_cell_angle_beta     60.00000032541751
_cell_angle_gamma    60.00000154467479

_space_group_name_H-M_alt    "P 1"
_space_group_IT_number       1

loop_
  _space_group_symop_operation_xyz
  'x, y, z'

loop_
  _atom_site_type_symbol
  _atom_site_label
  _atom_site_symmetry_multiplicity
  _atom_site_fract_x
  _atom_site_fract_y
  _atom_site_fract_z
  _atom_site_occupancy
  Cr  Cr1       1.0  0.24999989031862288  0.2500000270851636  0.25000009857275535  1.0000
  Cr  Cr2       1.0  0.7500000601643714  0.7499999598803009  0.7499999179781622  1.0000
  Be  Be1       1.0  6.935077104153637e-09  1.7339313355745868e-08  0.9999999375250613  1.0000
  Cl  Cl1       1.0  0.2451071527380719  0.24510716594187912  0.7548928402396439  1.0000
  Cl  Cl2       1.0  0.7548928310635368  0.7548928518490333  0.24510721817280345  1.0000
  Cl  Cl3       1.0  0.7548929074269617  0.24510714692014565  0.24510714386677313  1.0000
  Cl  Cl4       1.0  0.24510717000304535  0.7548928188528274  0.7548928669985178  1.0000
  Cl  Cl5       1.0  0.24510714781700013  0.7548927952262169  0.24510713924749142  1.0000
  Cl  Cl6       1.0  0.7548928368471729  0.24510720907856193  0.7548928499701251  1.0000
