data_image0
_chemical_formula_structural       Cr2BeI6
_chemical_formula_sum              "Cr2 Be1 I6"
_cell_length_a       7.4882784234400654
_cell_length_b       7.488278273382242
_cell_length_c       7.488278371333508
_cell_angle_alpha    59.999999773625554
_cell_angle_beta     59.99999979655098
_cell_angle_gamma    60.000000804158454

_space_group_name_H-M_alt    "P 1"
_space_group_IT_number       1

loop_
  _space_group_symop_operation_xyz
  'x, y, z'

loop_
  _atom_site_type_symbol
  _atom_site_label
  _atom_site_symmetry_multiplicity
  _atom_site_fract_x
  _atom_site_fract_y
  _atom_site_fract_z
  _atom_site_occupancy
  Cr  Cr1       1.0  0.2500000052452333  0.24999995625299168  0.2500000234063596  1.0000
  Cr  Cr2       1.0  0.7499999454391775  0.7500000241361631  0.7500000664059393  1.0000
  Be  Be1       1.0  0.9999999889413579  0.999999986915605  2.141946166507169e-08  1.0000
  I   I1        1.0  0.2453894000038018  0.24538940832436107  0.7546106072550837  1.0000
  I   I2        1.0  0.7546105708977769  0.7546105900558366  0.24538937665078098  1.0000
  I   I3        1.0  0.7546106059497469  0.24538942125839347  0.24538936397497751  1.0000
  I   I4        1.0  0.24538945075924715  0.7546105787573547  0.7546105722031426  1.0000
  I   I5        1.0  0.2453894386749646  0.7546106078073259  0.24538938885084044  1.0000
  I   I6        1.0  0.754610594249099  0.24538942655495855  0.7546105754319878  1.0000
