data_image0
_chemical_formula_structural       Cr2CoI6
_chemical_formula_sum              "Cr2 Co1 I6"
_cell_length_a       7.476817864720055
_cell_length_b       7.476817850621339
_cell_length_c       7.476817804801365
_cell_angle_alpha    60.000000266590604
_cell_angle_beta     60.000000199078585
_cell_angle_gamma    60.000000902640195

_space_group_name_H-M_alt    "P 1"
_space_group_IT_number       1

loop_
  _space_group_symop_operation_xyz
  'x, y, z'

loop_
  _atom_site_type_symbol
  _atom_site_label
  _atom_site_symmetry_multiplicity
  _atom_site_fract_x
  _atom_site_fract_y
  _atom_site_fract_z
  _atom_site_occupancy
  Cr  Cr1       1.0  0.25000004656103053  0.24999996808075503  0.24999995089246985  1.0000
  Cr  Cr2       1.0  0.7500000080980844  0.7499999746786854  0.7500000330480509  1.0000
  Co  Co1       1.0  0.9999999734645911  1.4742506523092714e-08  0.9999999831595056  1.0000
  I   I1        1.0  0.24761170900302962  0.24761171193402634  0.7523882955726161  1.0000
  I   I2        1.0  0.7523882871866157  0.7523883274707358  0.24761169067945696  1.0000
  I   I3        1.0  0.7523882630746807  0.24761177504935605  0.24761168741787662  1.0000
  I   I4        1.0  0.247611704036826  0.7523882774598563  0.7523883188582472  1.0000
  I   I5        1.0  0.24761174352052107  0.752388257311776  0.24761170789672035  1.0000
  I   I6        1.0  0.7523882672564128  0.24761169199988925  0.7523883334953326  1.0000
