data_image0
_chemical_formula_structural       Cr2CO6
_chemical_formula_sum              "Cr2 C1 O6"
_cell_length_a       4.720794402247677
_cell_length_b       4.720794231568223
_cell_length_c       4.7207946100836224
_cell_angle_alpha    59.99999933252738
_cell_angle_beta     60.00000118756861
_cell_angle_gamma    59.99999862410576

_space_group_name_H-M_alt    "P 1"
_space_group_IT_number       1

loop_
  _space_group_symop_operation_xyz
  'x, y, z'

loop_
  _atom_site_type_symbol
  _atom_site_label
  _atom_site_symmetry_multiplicity
  _atom_site_fract_x
  _atom_site_fract_y
  _atom_site_fract_z
  _atom_site_occupancy
  Cr  Cr1       1.0  0.25000074101173897  0.24999906996991678  0.25000077792040626  1.0000
  Cr  Cr2       1.0  0.7500008347766379  0.7500001052176737  0.7500000974353437  1.0000
  C   C1        1.0  7.962137747611525e-07  0.9999995485810227  3.995402232325906e-07  1.0000
  O   O1        1.0  0.23052944165029982  0.23053006073004118  0.7694698755647973  1.0000
  O   O2        1.0  0.7694696309040745  0.7694705776776826  0.2305297086620853  1.0000
  O   O3        1.0  0.7694697241658703  0.23053008456834126  0.2305295686884354  1.0000
  O   O4        1.0  0.2305293590161569  0.7694703385073396  0.7694700183311286  1.0000
  O   O5        1.0  0.2305294603319455  0.7694704978041952  0.23052965441127252  1.0000
  O   O6        1.0  0.7694699734445778  0.23052975404359585  0.7694699340113536  1.0000
