data_image0
_chemical_formula_structural       Cr2CF6
_chemical_formula_sum              "Cr2 C1 F6"
_cell_length_a       4.799506057089051
_cell_length_b       4.799506126465932
_cell_length_c       4.7995060594544325
_cell_angle_alpha    59.99999866944414
_cell_angle_beta     60.000000121174246
_cell_angle_gamma    60.000000210414896

_space_group_name_H-M_alt    "P 1"
_space_group_IT_number       1

loop_
  _space_group_symop_operation_xyz
  'x, y, z'

loop_
  _atom_site_type_symbol
  _atom_site_label
  _atom_site_symmetry_multiplicity
  _atom_site_fract_x
  _atom_site_fract_y
  _atom_site_fract_z
  _atom_site_occupancy
  Cr  Cr1       1.0  0.24999994118180824  0.2499999748107557  0.25000001184762677  1.0000
  Cr  Cr2       1.0  0.7499999895006321  0.7500000111939547  0.7500000612834166  1.0000
  C   C1        1.0  0.9999999931951623  2.04145138556538e-08  5.5701593837228505e-08  1.0000
  F   F1        1.0  0.22102205348429252  0.22102208042440968  0.778977949146877  1.0000
  F   F2        1.0  0.7789779176601787  0.778977928546631  0.22102207351805603  1.0000
  F   F3        1.0  0.7789779279162151  0.22102207737779808  0.22102207475986077  1.0000
  F   F4        1.0  0.22102209392258293  0.7789778805569558  0.7789779043215503  1.0000
  F   F5        1.0  0.22102204676872778  0.7789779763939698  0.22102202018376294  1.0000
  F   F6        1.0  0.7789779529293066  0.2210220912688032  0.7789779067698278  1.0000
