data_image0
_chemical_formula_structural       Cr2CS6
_chemical_formula_sum              "Cr2 C1 S6"
_cell_length_a       5.959799794341708
_cell_length_b       5.959799692527023
_cell_length_c       5.9597998069471885
_cell_angle_alpha    60.000000387198675
_cell_angle_beta     59.99999866894239
_cell_angle_gamma    59.99999914766284

_space_group_name_H-M_alt    "P 1"
_space_group_IT_number       1

loop_
  _space_group_symop_operation_xyz
  'x, y, z'

loop_
  _atom_site_type_symbol
  _atom_site_label
  _atom_site_symmetry_multiplicity
  _atom_site_fract_x
  _atom_site_fract_y
  _atom_site_fract_z
  _atom_site_occupancy
  Cr  Cr1       1.0  0.24999997778406507  0.24999999425419542  0.2500000716736441  1.0000
  Cr  Cr2       1.0  0.7500003161745893  0.7499997875366186  0.7499998963829467  1.0000
  C   C1        1.0  3.2678064337994697e-07  0.9999981710409722  0.9999996789055099  1.0000
  S   S1        1.0  0.2344598780175977  0.23446019477306004  0.7655399402030387  1.0000
  S   S2        1.0  0.7655407180534348  0.7655406104127931  0.2344593953022054  1.0000
  S   S3        1.0  0.7655398406583722  0.23446028170055272  0.2344600564590237  1.0000
  S   S4        1.0  0.2344591057488706  0.7655408399568834  0.7655408114432357  1.0000
  S   S5        1.0  0.2344594973792198  0.7655403072438848  0.23445984192839497  1.0000
  S   S6        1.0  0.7655403421272383  0.2344597684133806  0.7655402852827843  1.0000
