data_image0
_chemical_formula_structural       Cr2CdCl6
_chemical_formula_sum              "Cr2 Cd1 Cl6"
_cell_length_a       6.690730878095267
_cell_length_b       6.690731025529395
_cell_length_c       6.69073092187183
_cell_angle_alpha    60.00000007312203
_cell_angle_beta     60.0000006001276
_cell_angle_gamma    60.000000043484555

_space_group_name_H-M_alt    "P 1"
_space_group_IT_number       1

loop_
  _space_group_symop_operation_xyz
  'x, y, z'

loop_
  _atom_site_type_symbol
  _atom_site_label
  _atom_site_symmetry_multiplicity
  _atom_site_fract_x
  _atom_site_fract_y
  _atom_site_fract_z
  _atom_site_occupancy
  Cr  Cr1       1.0  0.24999996003961492  0.25000012956703627  0.24999994381260687  1.0000
  Cr  Cr2       1.0  0.7499999951987437  0.749999934734679  0.749999888785712  1.0000
  Cd  Cd1       1.0  2.1843467558807265e-08  0.9999999707118432  0.9999999977439248  1.0000
  Cl  Cl1       1.0  0.2605656936029819  0.2605657950860086  0.7394342680753545  1.0000
  Cl  Cl2       1.0  0.7394342813522327  0.7394342307749993  0.26056577715117274  1.0000
  Cl  Cl3       1.0  0.7394342830110043  0.2605657359571594  0.2605657574199613  1.0000
  Cl  Cl4       1.0  0.2605658150189219  0.7394342313275342  0.7394342839548633  1.0000
  Cl  Cl5       1.0  0.2605657085957703  0.7394342022411172  0.26056580544570024  1.0000
  Cl  Cl6       1.0  0.7394342380673695  0.2605657687045967  0.739434278395301  1.0000
