data_image0
_chemical_formula_structural       Cr2CoS6
_chemical_formula_sum              "Cr2 Co1 S6"
_cell_length_a       6.176057941882442
_cell_length_b       6.176058150957899
_cell_length_c       6.176058319774812
_cell_angle_alpha    59.999998874003296
_cell_angle_beta     59.99999835558099
_cell_angle_gamma    60.00000227760739

_space_group_name_H-M_alt    "P 1"
_space_group_IT_number       1

loop_
  _space_group_symop_operation_xyz
  'x, y, z'

loop_
  _atom_site_type_symbol
  _atom_site_label
  _atom_site_symmetry_multiplicity
  _atom_site_fract_x
  _atom_site_fract_y
  _atom_site_fract_z
  _atom_site_occupancy
  Cr  Cr1       1.0  0.2499997134604836  0.2500001173101751  0.25000016750803455  1.0000
  Cr  Cr2       1.0  0.7500001272567478  0.7499999097098077  0.7499997881673129  1.0000
  Co  Co1       1.0  2.475897139490291e-08  0.999999976203368  1.2419381888872786e-07  1.0000
  S   S1        1.0  0.24728400892519017  0.247283997406693  0.7527160538359233  1.0000
  S   S2        1.0  0.7527160071979722  0.7527160474607684  0.2472839347451752  1.0000
  S   S3        1.0  0.7527159425078152  0.2472840130426136  0.24728413643076264  1.0000
  S   S4        1.0  0.2472841529924888  0.7527158890450569  0.7527158935665953  1.0000
  S   S5        1.0  0.24728395991731952  0.7527158791425717  0.24728418914044523  1.0000
  S   S6        1.0  0.7527160534483599  0.24728417960625887  0.7527157145400812  1.0000
