data_image0
_chemical_formula_structural       Cr2CoF6
_chemical_formula_sum              "Cr2 Co1 F6"
_cell_length_a       5.3496681288366155
_cell_length_b       5.349668105575264
_cell_length_c       5.34966810249571
_cell_angle_alpha    59.99999942529018
_cell_angle_beta     59.99999917012032
_cell_angle_gamma    60.000000139049

_space_group_name_H-M_alt    "P 1"
_space_group_IT_number       1

loop_
  _space_group_symop_operation_xyz
  'x, y, z'

loop_
  _atom_site_type_symbol
  _atom_site_label
  _atom_site_symmetry_multiplicity
  _atom_site_fract_x
  _atom_site_fract_y
  _atom_site_fract_z
  _atom_site_occupancy
  Cr  Cr1       1.0  0.25000019204711027  0.24999998076644853  0.25000019636149795  1.0000
  Cr  Cr2       1.0  0.750000266371608  0.74999988735411  0.7500002181366224  1.0000
  Co  Co1       1.0  0.9999999946581024  1.6025693468775498e-08  0.9999999871810027  1.0000
  F   F1        1.0  0.24464313869593907  0.2446434278207999  0.7553565881004133  1.0000
  F   F2        1.0  0.7553567002430173  0.7553566669488502  0.24464325267181064  1.0000
  F   F3        1.0  0.7553565872625386  0.24464334069210086  0.2446432676188239  1.0000
  F   F4        1.0  0.24464320765823275  0.7553566853960055  0.7553565865099438  1.0000
  F   F5        1.0  0.24464336121572397  0.755356647998152  0.244643273391852  1.0000
  F   F6        1.0  0.7553565380963669  0.24464333688102857  0.7553566613022088  1.0000
