data_image0
_chemical_formula_structural       Cr2CI6
_chemical_formula_sum              "Cr2 C1 I6"
_cell_length_a       7.457768028001302
_cell_length_b       7.457768078598818
_cell_length_c       7.457768146751995
_cell_angle_alpha    60.00000001279225
_cell_angle_beta     60.00000035954374
_cell_angle_gamma    60.00000079353929

_space_group_name_H-M_alt    "P 1"
_space_group_IT_number       1

loop_
  _space_group_symop_operation_xyz
  'x, y, z'

loop_
  _atom_site_type_symbol
  _atom_site_label
  _atom_site_symmetry_multiplicity
  _atom_site_fract_x
  _atom_site_fract_y
  _atom_site_fract_z
  _atom_site_occupancy
  Cr  Cr1       1.0  0.24999998337111914  0.250000013556699  0.2500000274891498  1.0000
  Cr  Cr2       1.0  0.7499999946094632  0.7499999536313515  0.7500000246266287  1.0000
  C   C1        1.0  0.9999999895374506  0.9999999802931141  0.9999999949714615  1.0000
  I   I1        1.0  0.25098148117674074  0.2509814888484334  0.7490185230652125  1.0000
  I   I2        1.0  0.7490185201064361  0.7490185013309839  0.2509814696997248  1.0000
  I   I3        1.0  0.7490185254348438  0.2509815021185884  0.2509814905640466  1.0000
  I   I4        1.0  0.25098151499369126  0.7490185192633985  0.7490184884810668  1.0000
  I   I5        1.0  0.25098148962555833  0.749018535574762  0.2509814614321657  1.0000
  I   I6        1.0  0.74901850106892  0.25098149566066746  0.7490185214626498  1.0000
