data_image0
_chemical_formula_structural       Cr2CoTe6
_chemical_formula_sum              "Cr2 Co1 Te6"
_cell_length_a       6.905513081976103
_cell_length_b       6.905513054701467
_cell_length_c       6.905512901519846
_cell_angle_alpha    59.999999909848
_cell_angle_beta     60.00000045022452
_cell_angle_gamma    59.99999982834443

_space_group_name_H-M_alt    "P 1"
_space_group_IT_number       1

loop_
  _space_group_symop_operation_xyz
  'x, y, z'

loop_
  _atom_site_type_symbol
  _atom_site_label
  _atom_site_symmetry_multiplicity
  _atom_site_fract_x
  _atom_site_fract_y
  _atom_site_fract_z
  _atom_site_occupancy
  Cr  Cr1       1.0  0.2500000887077187  0.24999997869679988  0.24999997543328364  1.0000
  Cr  Cr2       1.0  0.7499999643925829  0.7500000336370535  0.7499999125423424  1.0000
  Co  Co1       1.0  1.5437613779953485e-08  8.867877425705232e-09  0.9999999921916094  1.0000
  Te  Te1       1.0  0.24903299038160842  0.2490330037141638  0.7509669743355825  1.0000
  Te  Te2       1.0  0.7509670146148729  0.7509670174875666  0.24903301724888005  1.0000
  Te  Te3       1.0  0.7509670105556379  0.2490329374941143  0.2490330082926307  1.0000
  Te  Te4       1.0  0.24903297883517098  0.7509670251796244  0.7509670362879662  1.0000
  Te  Te5       1.0  0.24903297226556043  0.7509670060257736  0.24903297134395755  1.0000
  Te  Te6       1.0  0.7509669634978369  0.2490329921194749  0.7509671112769571  1.0000
