data_image0
_chemical_formula_structural       Cr2CdBr6
_chemical_formula_sum              "Cr2 Cd1 Br6"
_cell_length_a       7.1379185606608155
_cell_length_b       7.137918455055043
_cell_length_c       7.137918394849715
_cell_angle_alpha    60.00000003236981
_cell_angle_beta     60.00000066856235
_cell_angle_gamma    59.999999965810865

_space_group_name_H-M_alt    "P 1"
_space_group_IT_number       1

loop_
  _space_group_symop_operation_xyz
  'x, y, z'

loop_
  _atom_site_type_symbol
  _atom_site_label
  _atom_site_symmetry_multiplicity
  _atom_site_fract_x
  _atom_site_fract_y
  _atom_site_fract_z
  _atom_site_occupancy
  Cr  Cr1       1.0  0.25000000790689747  0.24999996806472277  0.25000004394255  1.0000
  Cr  Cr2       1.0  0.7499999801885635  0.7499999814064812  0.7500000995769027  1.0000
  Cd  Cd1       1.0  0.9999999932348133  1.5442462581211352e-08  0.9999999928594248  1.0000
  Br  Br1       1.0  0.2623967867479421  0.2623968155027863  0.737603182097398  1.0000
  Br  Br2       1.0  0.737603223193432  0.7376032043174143  0.26239674440642263  1.0000
  Br  Br3       1.0  0.7376032623229105  0.26239677019670044  0.262396750066584  1.0000
  Br  Br4       1.0  0.2623967623740164  0.7376032393285252  0.7376031868156658  1.0000
  Br  Br5       1.0  0.2623968248248516  0.7376031941504918  0.2623967941377426  1.0000
  Br  Br6       1.0  0.7376031703778062  0.26239680679558763  0.737603206612212  1.0000
