data_image0
_chemical_formula_structural       Cr2CoCl6
_chemical_formula_sum              "Cr2 Co1 Cl6"
_cell_length_a       6.4657531436265545
_cell_length_b       6.465753259916347
_cell_length_c       6.465752998345681
_cell_angle_alpha    60.000001070196454
_cell_angle_beta     60.00000077617757
_cell_angle_gamma    60.000000828449814

_space_group_name_H-M_alt    "P 1"
_space_group_IT_number       1

loop_
  _space_group_symop_operation_xyz
  'x, y, z'

loop_
  _atom_site_type_symbol
  _atom_site_label
  _atom_site_symmetry_multiplicity
  _atom_site_fract_x
  _atom_site_fract_y
  _atom_site_fract_z
  _atom_site_occupancy
  Cr  Cr1       1.0  0.2499999503924426  0.24999988922130711  0.25000017267340746  1.0000
  Cr  Cr2       1.0  0.750000005155254  0.7499998968624733  0.7499997882116084  1.0000
  Co  Co1       1.0  4.1418628514815795e-08  0.9999999507507245  7.196617559653961e-08  1.0000
  Cl  Cl1       1.0  0.2459480292017906  0.24594796792188547  0.754052019816281  1.0000
  Cl  Cl2       1.0  0.7540519702497779  0.7540520132647921  0.24594815717977858  1.0000
  Cl  Cl3       1.0  0.7540519663619345  0.24594800015796953  0.24594792709556862  1.0000
  Cl  Cl4       1.0  0.2459480702121856  0.7540520946808825  0.7540519456148078  1.0000
  Cl  Cl5       1.0  0.24594787356665548  0.7540521322777947  0.24594798670143334  1.0000
  Cl  Cl6       1.0  0.7540520946738434  0.2459480496943906  0.7540519152743436  1.0000
