data_image0
_chemical_formula_structural       Cr2CdF6
_chemical_formula_sum              "Cr2 Cd1 F6"
_cell_length_a       5.651649541787414
_cell_length_b       5.651650138238573
_cell_length_c       5.6516494045755605
_cell_angle_alpha    60.0000015453813
_cell_angle_beta     60.00000269316046
_cell_angle_gamma    60.00000239654978

_space_group_name_H-M_alt    "P 1"
_space_group_IT_number       1

loop_
  _space_group_symop_operation_xyz
  'x, y, z'

loop_
  _atom_site_type_symbol
  _atom_site_label
  _atom_site_symmetry_multiplicity
  _atom_site_fract_x
  _atom_site_fract_y
  _atom_site_fract_z
  _atom_site_occupancy
  Cr  Cr1       1.0  0.2499999956809203  0.2500000761754172  0.24999981518468128  1.0000
  Cr  Cr2       1.0  0.7500001533891635  0.749999790780708  0.7499999404408036  1.0000
  Cd  Cd1       1.0  0.9999999872667923  0.9999999891647146  1.7092431539064665e-08  1.0000
  F   F1        1.0  0.2650944614612009  0.26509453693939167  0.7349056008944783  1.0000
  F   F2        1.0  0.73490543448483  0.7349055683929994  0.2650945248308594  1.0000
  F   F3        1.0  0.7349054878564484  0.265094607910107  0.26509448977547684  1.0000
  F   F4        1.0  0.26509448071424563  0.7349054389117456  0.7349055475006323  1.0000
  F   F5        1.0  0.26509446673830783  0.7349054417377041  0.26509460233788634  1.0000
  F   F6        1.0  0.7349054618162505  0.26509459641592  0.7349054752049595  1.0000
