data_image0
_chemical_formula_structural       Cr2CBr6
_chemical_formula_sum              "Cr2 C1 Br6"
_cell_length_a       6.946636350952817
_cell_length_b       6.946636376568094
_cell_length_c       6.94663642794788
_cell_angle_alpha    59.99999969222696
_cell_angle_beta     59.99999952244906
_cell_angle_gamma    60.00000007079622

_space_group_name_H-M_alt    "P 1"
_space_group_IT_number       1

loop_
  _space_group_symop_operation_xyz
  'x, y, z'

loop_
  _atom_site_type_symbol
  _atom_site_label
  _atom_site_symmetry_multiplicity
  _atom_site_fract_x
  _atom_site_fract_y
  _atom_site_fract_z
  _atom_site_occupancy
  Cr  Cr1       1.0  0.25000002485358375  0.2499998488344979  0.2500000896064963  1.0000
  Cr  Cr2       1.0  0.7499999719795741  0.7500000736632544  0.749999878026541  1.0000
  C   C1        1.0  0.9999998982343804  0.9999999612123249  1.6096802106869094e-07  1.0000
  Br  Br1       1.0  0.24720299713916663  0.24720303165821073  0.7527969913298211  1.0000
  Br  Br2       1.0  0.7527970136285684  0.7527969737041195  0.2472030229136488  1.0000
  Br  Br3       1.0  0.7527971289310066  0.24720296084138518  0.24720287535233967  1.0000
  Br  Br4       1.0  0.24720300004042522  0.7527970639147824  0.7527970643341805  1.0000
  Br  Br5       1.0  0.24720292577181885  0.7527970340922877  0.24720289442366142  1.0000
  Br  Br6       1.0  0.7527970343046371  0.2472030435561633  0.7527970197705596  1.0000
