data_image0
_chemical_formula_structural       Cr2CoBr6
_chemical_formula_sum              "Cr2 Co1 Br6"
_cell_length_a       6.925206723928922
_cell_length_b       6.925206841003672
_cell_length_c       6.925206734432555
_cell_angle_alpha    59.999999992615486
_cell_angle_beta     59.9999995351987
_cell_angle_gamma    59.99999987548843

_space_group_name_H-M_alt    "P 1"
_space_group_IT_number       1

loop_
  _space_group_symop_operation_xyz
  'x, y, z'

loop_
  _atom_site_type_symbol
  _atom_site_label
  _atom_site_symmetry_multiplicity
  _atom_site_fract_x
  _atom_site_fract_y
  _atom_site_fract_z
  _atom_site_occupancy
  Cr  Cr1       1.0  0.24999995857170068  0.25000002365527496  0.2499999353293265  1.0000
  Cr  Cr2       1.0  0.7499999813356686  0.7499999241776816  0.7500001428078147  1.0000
  Co  Co1       1.0  3.147808096134544e-08  1.0611190992843339e-08  0.9999999428553585  1.0000
  Br  Br1       1.0  0.24743164056637443  0.24743158805614474  0.7525684064116108  1.0000
  Br  Br2       1.0  0.7525683579856478  0.7525683739250661  0.24743160789307234  1.0000
  Br  Br3       1.0  0.7525683683352741  0.24743165272534257  0.24743161937974392  1.0000
  Br  Br4       1.0  0.24743162546595635  0.7525683835342051  0.7525683760451688  1.0000
  Br  Br5       1.0  0.2474316382227682  0.7525684016168979  0.24743161970953134  1.0000
  Br  Br6       1.0  0.752568398829402  0.24743163994824513  0.7525683557691145  1.0000
