data_image0
_chemical_formula_structural       Cr2CoSe6
_chemical_formula_sum              "Cr2 Co1 Se6"
_cell_length_a       6.476712991241472
_cell_length_b       6.47671294416281
_cell_length_c       6.476713000817921
_cell_angle_alpha    59.999999078420814
_cell_angle_beta     59.9999987348164
_cell_angle_gamma    59.99999982993238

_space_group_name_H-M_alt    "P 1"
_space_group_IT_number       1

loop_
  _space_group_symop_operation_xyz
  'x, y, z'

loop_
  _atom_site_type_symbol
  _atom_site_label
  _atom_site_symmetry_multiplicity
  _atom_site_fract_x
  _atom_site_fract_y
  _atom_site_fract_z
  _atom_site_occupancy
  Cr  Cr1       1.0  0.24999973905360837  0.2500000734995454  0.2500000762718627  1.0000
  Cr  Cr2       1.0  0.7499999423141106  0.7500001202757662  0.7500002405889192  1.0000
  Co  Co1       1.0  2.0655714976176565e-08  7.563990564129314e-09  1.9857994579024542e-08  1.0000
  Se  Se1       1.0  0.2501103790006157  0.2501103533054279  0.7498895854508691  1.0000
  Se  Se2       1.0  0.7498897785920707  0.749889486853332  0.2501102485955932  1.0000
  Se  Se3       1.0  0.7498897050717119  0.25011038583580153  0.2501103480441377  1.0000
  Se  Se4       1.0  0.250110323216394  0.7498896282947388  0.7498896211560188  1.0000
  Se  Se5       1.0  0.2501104745662984  0.7498896579446118  0.2501102661447597  1.0000
  Se  Se6       1.0  0.7498896376610007  0.25011028621901704  0.7498895926217197  1.0000
