data_image0
_chemical_formula_structural       Cr2CCl6
_chemical_formula_sum              "Cr2 C1 Cl6"
_cell_length_a       6.561513912064997
_cell_length_b       6.561513731884171
_cell_length_c       6.5615138305807035
_cell_angle_alpha    60.00000063570185
_cell_angle_beta     60.00000058204453
_cell_angle_gamma    59.99999998906909

_space_group_name_H-M_alt    "P 1"
_space_group_IT_number       1

loop_
  _space_group_symop_operation_xyz
  'x, y, z'

loop_
  _atom_site_type_symbol
  _atom_site_label
  _atom_site_symmetry_multiplicity
  _atom_site_fract_x
  _atom_site_fract_y
  _atom_site_fract_z
  _atom_site_occupancy
  Cr  Cr1       1.0  0.25000008719711425  0.2499999508995948  0.2500000847206872  1.0000
  Cr  Cr2       1.0  0.7499998123551866  0.7500001550812404  0.749999734737919  1.0000
  C   C1        1.0  7.981040614248037e-08  1.8292272551735972e-07  0.9999999311190162  1.0000
  Cl  Cl1       1.0  0.24766216967878238  0.24766206645149558  0.752337859903423  1.0000
  Cl  Cl2       1.0  0.7523377838817903  0.7523377296806453  0.24766230084078864  1.0000
  Cl  Cl3       1.0  0.7523377676624186  0.24766210273317044  0.24766223651670297  1.0000
  Cl  Cl4       1.0  0.2476622657451918  0.7523378128587087  0.7523377956173892  1.0000
  Cl  Cl5       1.0  0.24766221681638392  0.7523378197675559  0.24766216623604329  1.0000
  Cl  Cl6       1.0  0.752337826064256  0.24766218355256944  0.752337870638761  1.0000
