data_image0
_chemical_formula_structural       Cr2CoO6
_chemical_formula_sum              "Cr2 Co1 O6"
_cell_length_a       4.964703460681461
_cell_length_b       4.964703488687646
_cell_length_c       4.964703696378653
_cell_angle_alpha    59.99999796183851
_cell_angle_beta     60.00000104788148
_cell_angle_gamma    59.99999893216319

_space_group_name_H-M_alt    "P 1"
_space_group_IT_number       1

loop_
  _space_group_symop_operation_xyz
  'x, y, z'

loop_
  _atom_site_type_symbol
  _atom_site_label
  _atom_site_symmetry_multiplicity
  _atom_site_fract_x
  _atom_site_fract_y
  _atom_site_fract_z
  _atom_site_occupancy
  Cr  Cr1       1.0  0.2499999010392802  0.24999959803433638  0.25000089707447337  1.0000
  Cr  Cr2       1.0  0.7500003916606861  0.7499998055338479  0.750000358771479  1.0000
  Co  Co1       1.0  0.999999995207277  7.400712638166695e-09  3.696616405828853e-08  1.0000
  O   O1        1.0  0.2531778903862606  0.25317640228289484  0.7468236618261019  1.0000
  O   O2        1.0  0.7468221330019672  0.7468235859416695  0.2531757242614596  1.0000
  O   O3        1.0  0.7468223794714349  0.2531772089943305  0.2531771053031109  1.0000
  O   O4        1.0  0.25317717606808476  0.7468231640673239  0.7468224592571334  1.0000
  O   O5        1.0  0.2531761040316599  0.74682216858298  0.2531780914223042  1.0000
  O   O6        1.0  0.7468239847091342  0.2531781329384386  0.7468215545113606  1.0000
