data_image0
_chemical_formula_structural       Cr2CuBr6
_chemical_formula_sum              "Cr2 Cu1 Br6"
_cell_length_a       6.942519276353794
_cell_length_b       6.942519279102217
_cell_length_c       6.942519318401729
_cell_angle_alpha    59.999999315140556
_cell_angle_beta     59.99999975235425
_cell_angle_gamma    59.99999944701956

_space_group_name_H-M_alt    "P 1"
_space_group_IT_number       1

loop_
  _space_group_symop_operation_xyz
  'x, y, z'

loop_
  _atom_site_type_symbol
  _atom_site_label
  _atom_site_symmetry_multiplicity
  _atom_site_fract_x
  _atom_site_fract_y
  _atom_site_fract_z
  _atom_site_occupancy
  Cr  Cr1       1.0  0.25000004084370736  0.24999987466313142  0.2500000629381571  1.0000
  Cr  Cr2       1.0  0.7500000282428476  0.7499999168335951  0.7499999325329827  1.0000
  Cu  Cu1       1.0  0.9999999900033103  2.99900689734963e-08  0.9999999352681367  1.0000
  Br  Br1       1.0  0.2511125312760526  0.2511126269653886  0.7488874200753913  1.0000
  Br  Br2       1.0  0.7488874021605759  0.7488874168007383  0.2511126337583543  1.0000
  Br  Br3       1.0  0.7488874112048182  0.2511126149838653  0.25111257909733076  1.0000
  Br  Br4       1.0  0.2511125734719503  0.7488874746494256  0.7488874016959743  1.0000
  Br  Br5       1.0  0.2511125636306113  0.7488874350294797  0.25111260269078933  1.0000
  Br  Br6       1.0  0.7488874623588494  0.25111261050076883  0.7488874227096702  1.0000
