data_image0
_chemical_formula_structural       Cr2CuCl6
_chemical_formula_sum              "Cr2 Cu1 Cl6"
_cell_length_a       6.502084166103605
_cell_length_b       6.50208392139419
_cell_length_c       6.502084249356828
_cell_angle_alpha    60.00000034885533
_cell_angle_beta     60.00000069387717
_cell_angle_gamma    59.999999368978926

_space_group_name_H-M_alt    "P 1"
_space_group_IT_number       1

loop_
  _space_group_symop_operation_xyz
  'x, y, z'

loop_
  _atom_site_type_symbol
  _atom_site_label
  _atom_site_symmetry_multiplicity
  _atom_site_fract_x
  _atom_site_fract_y
  _atom_site_fract_z
  _atom_site_occupancy
  Cr  Cr1       1.0  0.24999997110544153  0.2500000614016402  0.24999995357650517  1.0000
  Cr  Cr2       1.0  0.7500000304946429  0.7499998752914145  0.7500004226015257  1.0000
  Cu  Cu1       1.0  4.662260407364319e-08  0.9999999453750494  1.7842888274282097e-08  1.0000
  Cl  Cl1       1.0  0.2503749100316466  0.25037493915716175  0.7496251106576391  1.0000
  Cl  Cl2       1.0  0.7496250743819287  0.749625091716834  0.2503747640946937  1.0000
  Cl  Cl3       1.0  0.7496249807374487  0.25037499308818273  0.2503748850315248  1.0000
  Cl  Cl4       1.0  0.25037485532596215  0.7496250566220035  0.7496250621676362  1.0000
  Cl  Cl5       1.0  0.2503749750917851  0.7496251226572107  0.25037479878200436  1.0000
  Cl  Cl6       1.0  0.7496251541016855  0.25037492140211715  0.749624983146001  1.0000
