data_image0
_chemical_formula_structural       Cr2FeCl6
_chemical_formula_sum              "Cr2 Fe1 Cl6"
_cell_length_a       6.547987970894366
_cell_length_b       6.547988031225794
_cell_length_c       6.547987864843432
_cell_angle_alpha    60.00000147403081
_cell_angle_beta     60.00000029478509
_cell_angle_gamma    60.00000132640997

_space_group_name_H-M_alt    "P 1"
_space_group_IT_number       1

loop_
  _space_group_symop_operation_xyz
  'x, y, z'

loop_
  _atom_site_type_symbol
  _atom_site_label
  _atom_site_symmetry_multiplicity
  _atom_site_fract_x
  _atom_site_fract_y
  _atom_site_fract_z
  _atom_site_occupancy
  Cr  Cr1       1.0  0.2500000753613835  0.24999987137327556  0.25000014154343386  1.0000
  Cr  Cr2       1.0  0.749999953508152  0.7500000985570502  0.7500001690353951  1.0000
  Fe  Fe1       1.0  5.89943344075331e-08  5.050117905982408e-08  4.6046565812830484e-08  1.0000
  Cl  Cl1       1.0  0.2401039669856321  0.24010385532004422  0.7598960842381657  1.0000
  Cl  Cl2       1.0  0.7598959964225634  0.7598961258327613  0.24010378003221558  1.0000
  Cl  Cl3       1.0  0.7598960412912791  0.24010390413327212  0.2401039246215663  1.0000
  Cl  Cl4       1.0  0.24010393936017194  0.759896035870426  0.759896011162022  1.0000
  Cl  Cl5       1.0  0.24010389688693443  0.7598960559796943  0.24010393960755197  1.0000
  Cl  Cl6       1.0  0.7598960715609435  0.2401039999896714  0.759895901533762  1.0000
