data_image0
_chemical_formula_structural       Cr2FeI6
_chemical_formula_sum              "Cr2 Fe1 I6"
_cell_length_a       7.48197608859231
_cell_length_b       7.481976116228725
_cell_length_c       7.4819762365277835
_cell_angle_alpha    59.99999994580874
_cell_angle_beta     60.00000014129832
_cell_angle_gamma    60.000001528786896

_space_group_name_H-M_alt    "P 1"
_space_group_IT_number       1

loop_
  _space_group_symop_operation_xyz
  'x, y, z'

loop_
  _atom_site_type_symbol
  _atom_site_label
  _atom_site_symmetry_multiplicity
  _atom_site_fract_x
  _atom_site_fract_y
  _atom_site_fract_z
  _atom_site_occupancy
  Cr  Cr1       1.0  0.25000005051819185  0.2499999190499683  0.2500000285455702  1.0000
  Cr  Cr2       1.0  0.7499999553775816  0.7500000632552491  0.7500001001728898  1.0000
  Fe  Fe1       1.0  2.5987533704530018e-08  0.9999999590768255  0.9999999473232829  1.0000
  I   I1        1.0  0.23088510777951396  0.23088505039142665  0.7691149249364971  1.0000
  I   I2        1.0  0.7691148610607671  0.7691149597415485  0.23088508276057385  1.0000
  I   I3        1.0  0.7691149171386934  0.23088506854128493  0.23088511798521602  1.0000
  I   I4        1.0  0.23088508245809983  0.7691149743302308  0.7691148459354216  1.0000
  I   I5        1.0  0.23088508057207102  0.7691149763071361  0.23088504634321935  1.0000
  I   I6        1.0  0.769114934115472  0.23088503055198595  0.7691148959611537  1.0000
