data_image0
_chemical_formula_structural       Cr2GeO6
_chemical_formula_sum              "Cr2 Ge1 O6"
_cell_length_a       5.0941405000646975
_cell_length_b       5.094140175222289
_cell_length_c       5.0941402998241
_cell_angle_alpha    59.99999992222107
_cell_angle_beta     60.000000247654164
_cell_angle_gamma    60.00000033460222

_space_group_name_H-M_alt    "P 1"
_space_group_IT_number       1

loop_
  _space_group_symop_operation_xyz
  'x, y, z'

loop_
  _atom_site_type_symbol
  _atom_site_label
  _atom_site_symmetry_multiplicity
  _atom_site_fract_x
  _atom_site_fract_y
  _atom_site_fract_z
  _atom_site_occupancy
  Cr  Cr1       1.0  0.24999997163044607  0.249999564110625  0.2500004180284501  1.0000
  Cr  Cr2       1.0  0.7499996482227765  0.7499998391462226  0.7500008729036587  1.0000
  Ge  Ge1       1.0  9.389076320174414e-10  0.999999990383108  0.9999999945237933  1.0000
  O   O1        1.0  0.2562429652373498  0.2562428348830353  0.7437569776436562  1.0000
  O   O2        1.0  0.743757157062015  0.7437572030886677  0.25624264344264247  1.0000
  O   O3        1.0  0.7437571823271691  0.25624297900242715  0.25624267283896873  1.0000
  O   O4        1.0  0.25624272714759444  0.7437573234337977  0.7437569243904124  1.0000
  O   O5        1.0  0.2562432423333475  0.743757303027448  0.25624241083772825  1.0000
  O   O6        1.0  0.7437571558382605  0.2562429681538876  0.7437570676008984  1.0000
