data_image0
_chemical_formula_structural       Cr2GeI6
_chemical_formula_sum              "Cr2 Ge1 I6"
_cell_length_a       7.752845315978417
_cell_length_b       7.752845306338299
_cell_length_c       7.752845237505276
_cell_angle_alpha    59.999999282161525
_cell_angle_beta     59.999999737264574
_cell_angle_gamma    59.99999932269929

_space_group_name_H-M_alt    "P 1"
_space_group_IT_number       1

loop_
  _space_group_symop_operation_xyz
  'x, y, z'

loop_
  _atom_site_type_symbol
  _atom_site_label
  _atom_site_symmetry_multiplicity
  _atom_site_fract_x
  _atom_site_fract_y
  _atom_site_fract_z
  _atom_site_occupancy
  Cr  Cr1       1.0  0.2500000580649582  0.25000007885146813  0.24999995832901745  1.0000
  Cr  Cr2       1.0  0.7500000183692318  0.7500000248697811  0.7500000432639992  1.0000
  Ge  Ge1       1.0  6.739674977504516e-09  1.1058152161914907e-08  0.9999999704635016  1.0000
  I   I1        1.0  0.2603859749414311  0.2603859521769871  0.7396140335960841  1.0000
  I   I2        1.0  0.7396140425367698  0.7396139888314555  0.260385991121597  1.0000
  I   I3        1.0  0.7396140014364946  0.2603859766995899  0.2603859528766325  1.0000
  I   I4        1.0  0.26038596731258784  0.7396139943238369  0.7396140618503801  1.0000
  I   I5        1.0  0.2603859468974082  0.7396140240128053  0.2603859537004143  1.0000
  I   I6        1.0  0.7396139781328039  0.2603859485903579  0.739614040820996  1.0000
