data_image0
_chemical_formula_structural       Cr2GeTe6
_chemical_formula_sum              "Cr2 Ge1 Te6"
_cell_length_a       7.186763738451658
_cell_length_b       7.186763746683308
_cell_length_c       7.18676377238632
_cell_angle_alpha    59.999999666803156
_cell_angle_beta     59.999999718366496
_cell_angle_gamma    60.00000043666654

_space_group_name_H-M_alt    "P 1"
_space_group_IT_number       1

loop_
  _space_group_symop_operation_xyz
  'x, y, z'

loop_
  _atom_site_type_symbol
  _atom_site_label
  _atom_site_symmetry_multiplicity
  _atom_site_fract_x
  _atom_site_fract_y
  _atom_site_fract_z
  _atom_site_occupancy
  Cr  Cr1       1.0  0.2499999924998001  0.24999996579346725  0.25000000404270284  1.0000
  Cr  Cr2       1.0  0.7499999797381798  0.7499999485054247  0.7500000271896134  1.0000
  Ge  Ge1       1.0  0.9999999863833826  1.1929171872620938e-08  3.1455554030989234e-08  1.0000
  Te  Te1       1.0  0.26652417632111597  0.2665241722267866  0.7334758149683739  1.0000
  Te  Te2       1.0  0.7334758556071526  0.733475813647138  0.26652417011153795  1.0000
  Te  Te3       1.0  0.7334758244073936  0.2665241930681083  0.26652417744166507  1.0000
  Te  Te4       1.0  0.26652419700348184  0.7334758388183369  0.7334757815420017  1.0000
  Te  Te5       1.0  0.2665241907640281  0.7334758448470183  0.26652416805821527  1.0000
  Te  Te6       1.0  0.7334758083311889  0.2665242057852684  0.733475824713638  1.0000
