data_image0
_chemical_formula_structural       Cr2GeBr6
_chemical_formula_sum              "Cr2 Ge1 Br6"
_cell_length_a       7.082737901357156
_cell_length_b       7.082737993088326
_cell_length_c       7.082737889061438
_cell_angle_alpha    59.99999976411819
_cell_angle_beta     59.9999994115668
_cell_angle_gamma    60.00000029333729

_space_group_name_H-M_alt    "P 1"
_space_group_IT_number       1

loop_
  _space_group_symop_operation_xyz
  'x, y, z'

loop_
  _atom_site_type_symbol
  _atom_site_label
  _atom_site_symmetry_multiplicity
  _atom_site_fract_x
  _atom_site_fract_y
  _atom_site_fract_z
  _atom_site_occupancy
  Cr  Cr1       1.0  0.250000072545638  0.2500000170043728  0.24999997317965894  1.0000
  Cr  Cr2       1.0  0.7499999447689695  0.7499999403445148  0.7500001028359526  1.0000
  Ge  Ge1       1.0  6.413587178934968e-10  5.187590753909296e-08  0.9999999709175998  1.0000
  Br  Br1       1.0  0.24870997702791053  0.24870990699771156  0.7512900823749197  1.0000
  Br  Br2       1.0  0.7512899545220222  0.7512901022270836  0.24870995693350673  1.0000
  Br  Br3       1.0  0.7512900491524824  0.24870996891462555  0.24870990053520614  1.0000
  Br  Br4       1.0  0.24870996009254  0.7512900126430198  0.7512900262224796  1.0000
  Br  Br5       1.0  0.2487099664363702  0.7512900034240751  0.24870996670684214  1.0000
  Br  Br6       1.0  0.7512900739652212  0.24870999715473596  0.7512900112036793  1.0000
