data_image0
_chemical_formula_structural       Cr2GeSe6
_chemical_formula_sum              "Cr2 Ge1 Se6"
_cell_length_a       6.6634036903625375
_cell_length_b       6.663404181328447
_cell_length_c       6.663404803778596
_cell_angle_alpha    59.99999528514314
_cell_angle_beta     59.99999525464392
_cell_angle_gamma    59.99999764262213

_space_group_name_H-M_alt    "P 1"
_space_group_IT_number       1

loop_
  _space_group_symop_operation_xyz
  'x, y, z'

loop_
  _atom_site_type_symbol
  _atom_site_label
  _atom_site_symmetry_multiplicity
  _atom_site_fract_x
  _atom_site_fract_y
  _atom_site_fract_z
  _atom_site_occupancy
  Cr  Cr1       1.0  0.24999735192501302  0.25000057835995027  0.25000168580120236  1.0000
  Cr  Cr2       1.0  0.7499997911906122  0.7500007480647725  0.7500011834589027  1.0000
  Ge  Ge1       1.0  0.9999998423752361  5.697852111300121e-08  1.5237305071764367e-07  1.0000
  Se  Se1       1.0  0.2589806164469244  0.25897964757334196  0.7410197997411382  1.0000
  Se  Se2       1.0  0.7410207099632231  0.7410192508311474  0.2589796916585693  1.0000
  Se  Se3       1.0  0.7410206429209952  0.25898035986208584  0.2589795976603029  1.0000
  Se  Se4       1.0  0.25897957872762845  0.741020282820408  0.7410194344128482  1.0000
  Se  Se5       1.0  0.2589804783535241  0.7410196884160124  0.2589795881940371  1.0000
  Se  Se6       1.0  0.7410209805767558  0.25897937908604596  0.7410188744672653  1.0000
