data_image0
_chemical_formula_structural       Cr2GeS6
_chemical_formula_sum              "Cr2 Ge1 S6"
_cell_length_a       6.417682731644815
_cell_length_b       6.417682771139203
_cell_length_c       6.417682613539532
_cell_angle_alpha    59.99999954849734
_cell_angle_beta     59.99999972365438
_cell_angle_gamma    60.00000066350567

_space_group_name_H-M_alt    "P 1"
_space_group_IT_number       1

loop_
  _space_group_symop_operation_xyz
  'x, y, z'

loop_
  _atom_site_type_symbol
  _atom_site_label
  _atom_site_symmetry_multiplicity
  _atom_site_fract_x
  _atom_site_fract_y
  _atom_site_fract_z
  _atom_site_occupancy
  Cr  Cr1       1.0  0.2500001165370771  0.24999977761337389  0.250000150650584  1.0000
  Cr  Cr2       1.0  0.7500001220948517  0.7500000045937907  0.7500000833627865  1.0000
  Ge  Ge1       1.0  0.9999999824253611  9.541955605677655e-09  0.9999999822016137  1.0000
  S   S1        1.0  0.25368686006414415  0.2536868753772965  0.7463131494224116  1.0000
  S   S2        1.0  0.7463129653516378  0.7463133152255638  0.25368683301542294  1.0000
  S   S3        1.0  0.746313184219447  0.2536868960960666  0.25368680035472474  1.0000
  S   S4        1.0  0.2536867460080387  0.7463132391634535  0.746313074764601  1.0000
  S   S5        1.0  0.2536868673332134  0.746313088085715  0.2536868208799334  1.0000
  S   S6        1.0  0.7463131843389925  0.25368677999905126  0.7463131426863591  1.0000
