data_image0
_chemical_formula_structural       Cr2GeF6
_chemical_formula_sum              "Cr2 Ge1 F6"
_cell_length_a       5.572078600502697
_cell_length_b       5.572078997310127
_cell_length_c       5.572078807763281
_cell_angle_alpha    60.00000035882365
_cell_angle_beta     60.00000047846379
_cell_angle_gamma    60.000000516206754

_space_group_name_H-M_alt    "P 1"
_space_group_IT_number       1

loop_
  _space_group_symop_operation_xyz
  'x, y, z'

loop_
  _atom_site_type_symbol
  _atom_site_label
  _atom_site_symmetry_multiplicity
  _atom_site_fract_x
  _atom_site_fract_y
  _atom_site_fract_z
  _atom_site_occupancy
  Cr  Cr1       1.0  0.24999998974856386  0.24999998265194368  0.2500000597503193  1.0000
  Cr  Cr2       1.0  0.749999989609417  0.750000147974143  0.749999905745665  1.0000
  Ge  Ge1       1.0  2.13299389391018e-08  4.396006259740268e-09  8.67297574824146e-09  1.0000
  F   F1        1.0  0.23282309757084352  0.23282295890815194  0.7671769397216287  1.0000
  F   F2        1.0  0.7671769112842564  0.7671769651056153  0.2328230569027624  1.0000
  F   F3        1.0  0.767176954778375  0.23282299034706544  0.2328230596609319  1.0000
  F   F4        1.0  0.23282303247380773  0.7671769798247734  0.7671769300698685  1.0000
  F   F5        1.0  0.23282299267198373  0.7671769659382173  0.23282307702067595  1.0000
  F   F6        1.0  0.7671769763066385  0.23282298445159055  0.7671769712204917  1.0000
