data_image0
_chemical_formula_structural       Cr2MgBr6
_chemical_formula_sum              "Cr2 Mg1 Br6"
_cell_length_a       7.0664218337911855
_cell_length_b       7.066421999082487
_cell_length_c       7.066421730634613
_cell_angle_alpha    60.00000002764176
_cell_angle_beta     60.00000018709378
_cell_angle_gamma    60.00000036716129

_space_group_name_H-M_alt    "P 1"
_space_group_IT_number       1

loop_
  _space_group_symop_operation_xyz
  'x, y, z'

loop_
  _atom_site_type_symbol
  _atom_site_label
  _atom_site_symmetry_multiplicity
  _atom_site_fract_x
  _atom_site_fract_y
  _atom_site_fract_z
  _atom_site_occupancy
  Cr  Cr1       1.0  0.2500000524862777  0.2499999857159386  0.2500000466074488  1.0000
  Cr  Cr2       1.0  0.7500000089229857  0.7500000056771269  0.7499998742486386  1.0000
  Mg  Mg1       1.0  0.999999986069374  0.9999999878676736  0.999999979068035  1.0000
  Br  Br1       1.0  0.2564631021360558  0.2564631401497349  0.7435368743966793  1.0000
  Br  Br2       1.0  0.7435369099538354  0.7435368668420351  0.2564631637949223  1.0000
  Br  Br3       1.0  0.7435368566306236  0.2564630926507209  0.25646314278789367  1.0000
  Br  Br4       1.0  0.2564631187508289  0.7435368970091543  0.7435368898755772  1.0000
  Br  Br5       1.0  0.2564630859363709  0.7435368772530728  0.256463121077448  1.0000
  Br  Br6       1.0  0.74353687924419  0.2564631332050767  0.7435369176084781  1.0000
