data_image0
_chemical_formula_structural       Cr2MgF6
_chemical_formula_sum              "Cr2 Mg1 F6"
_cell_length_a       5.2267753623135205
_cell_length_b       5.226775271367597
_cell_length_c       5.226775384804385
_cell_angle_alpha    59.99999818724199
_cell_angle_beta     59.99999874640034
_cell_angle_gamma    59.99999905713377

_space_group_name_H-M_alt    "P 1"
_space_group_IT_number       1

loop_
  _space_group_symop_operation_xyz
  'x, y, z'

loop_
  _atom_site_type_symbol
  _atom_site_label
  _atom_site_symmetry_multiplicity
  _atom_site_fract_x
  _atom_site_fract_y
  _atom_site_fract_z
  _atom_site_occupancy
  Cr  Cr1       1.0  0.24999983946470677  0.25000022826677326  0.24999977209721963  1.0000
  Cr  Cr2       1.0  0.7499998685510875  0.750000124772354  0.7500001769512362  1.0000
  Mg  Mg1       1.0  4.768737449030713e-08  9.372853032009587e-09  0.9999999867756898  1.0000
  F   F1        1.0  0.2533086122097665  0.25330849680249407  0.746691522620097  1.0000
  F   F2        1.0  0.7466916023683661  0.7466913969668434  0.25330838173660364  1.0000
  F   F3        1.0  0.7466915088547862  0.2533085506099928  0.25330851452134495  1.0000
  F   F4        1.0  0.25330858243302645  0.7466912822357991  0.74669161395485  1.0000
  F   F5        1.0  0.2533085845511046  0.7466914714013417  0.25330849338006334  1.0000
  F   F6        1.0  0.7466913632265678  0.2533084340840605  0.746691542345288  1.0000
