data_image0
_chemical_formula_structural       Cr2MgCl6
_chemical_formula_sum              "Cr2 Mg1 Cl6"
_cell_length_a       6.5878078767644785
_cell_length_b       6.5878079231056
_cell_length_c       6.587808068804003
_cell_angle_alpha    59.99999957807981
_cell_angle_beta     59.999998919604856
_cell_angle_gamma    59.999999925397404

_space_group_name_H-M_alt    "P 1"
_space_group_IT_number       1

loop_
  _space_group_symop_operation_xyz
  'x, y, z'

loop_
  _atom_site_type_symbol
  _atom_site_label
  _atom_site_symmetry_multiplicity
  _atom_site_fract_x
  _atom_site_fract_y
  _atom_site_fract_z
  _atom_site_occupancy
  Cr  Cr1       1.0  0.25000015435061473  0.25000002320507775  0.24999987145286232  1.0000
  Cr  Cr2       1.0  0.7500000191387909  0.7499999710824907  0.7500002256035344  1.0000
  Mg  Mg1       1.0  0.9999999850572932  0.9999999869862418  9.442987809159764e-08  1.0000
  Cl  Cl1       1.0  0.25496563972568353  0.2549657091783898  0.7450342987793328  1.0000
  Cl  Cl2       1.0  0.7450342630906881  0.7450343241504526  0.25496562871729556  1.0000
  Cl  Cl3       1.0  0.7450342855113711  0.2549657223359499  0.25496567778413726  1.0000
  Cl  Cl4       1.0  0.25496570491085446  0.7450341901508496  0.7450342769562743  1.0000
  Cl  Cl5       1.0  0.25496574335995287  0.7450343499578246  0.25496563358995394  1.0000
  Cl  Cl6       1.0  0.7450342021247001  0.2549657131167517  0.7450343017203789  1.0000
