data_image0
_chemical_formula_structural       Cr2MgI6
_chemical_formula_sum              "Cr2 Mg1 I6"
_cell_length_a       7.718419726935469
_cell_length_b       7.718419679800814
_cell_length_c       7.718419731606542
_cell_angle_alpha    59.99999998268896
_cell_angle_beta     60.000000247117086
_cell_angle_gamma    59.999999809488216

_space_group_name_H-M_alt    "P 1"
_space_group_IT_number       1

loop_
  _space_group_symop_operation_xyz
  'x, y, z'

loop_
  _atom_site_type_symbol
  _atom_site_label
  _atom_site_symmetry_multiplicity
  _atom_site_fract_x
  _atom_site_fract_y
  _atom_site_fract_z
  _atom_site_occupancy
  Cr  Cr1       1.0  0.24999994217481697  0.2499999166940215  0.25000007718322886  1.0000
  Cr  Cr2       1.0  0.7499999875772397  0.7500000388763721  0.7499999573932633  1.0000
  Mg  Mg1       1.0  0.9999999774687657  4.760345812262656e-09  4.386669806218411e-08  1.0000
  I   I1        1.0  0.2592072728893209  0.25920724318153654  0.7407927374983642  1.0000
  I   I2        1.0  0.7407927630343197  0.7407927933147345  0.2592072372150495  1.0000
  I   I3        1.0  0.740792811819978  0.25920719618286264  0.25920725064462  1.0000
  I   I4        1.0  0.25920727043662567  0.7407927641478765  0.7407926988214161  1.0000
  I   I5        1.0  0.259207222263346  0.740792774623846  0.25920726504448405  1.0000
  I   I6        1.0  0.7407927511743653  0.2592072698063347  0.7407927304669294  1.0000
