data_image0
_chemical_formula_structural       Cr2MnTe6
_chemical_formula_sum              "Cr2 Mn1 Te6"
_cell_length_a       6.9511589804826865
_cell_length_b       6.951158896227607
_cell_length_c       6.951158909054378
_cell_angle_alpha    59.999999698501945
_cell_angle_beta     59.99999968274246
_cell_angle_gamma    59.99999908280159

_space_group_name_H-M_alt    "P 1"
_space_group_IT_number       1

loop_
  _space_group_symop_operation_xyz
  'x, y, z'

loop_
  _atom_site_type_symbol
  _atom_site_label
  _atom_site_symmetry_multiplicity
  _atom_site_fract_x
  _atom_site_fract_y
  _atom_site_fract_z
  _atom_site_occupancy
  Cr  Cr1       1.0  0.249999983490992  0.2500000268127098  0.2500000112028154  1.0000
  Cr  Cr2       1.0  0.7500000669242826  0.7499999553411661  0.7499999775096948  1.0000
  Mn  Mn1       1.0  1.3390067428264993e-08  0.9999999947142127  0.9999999916320328  1.0000
  Te  Te1       1.0  0.2537618455946322  0.2537619125753961  0.7462381337156285  1.0000
  Te  Te2       1.0  0.7462381524349919  0.7462380871977706  0.25376188964337004  1.0000
  Te  Te3       1.0  0.7462381088095561  0.25376186396045874  0.25376186247831445  1.0000
  Te  Te4       1.0  0.2537618411298301  0.7462381604797149  0.7462381021004573  1.0000
  Te  Te5       1.0  0.253761842321606  0.7462381218367393  0.25376189998453186  1.0000
  Te  Te6       1.0  0.7462381507245304  0.25376187793642746  0.7462381201117745  1.0000
