data_image0
_chemical_formula_structural       Cr2MnSe6
_chemical_formula_sum              "Cr2 Mn1 Se6"
_cell_length_a       6.606816727125697
_cell_length_b       6.60681677959271
_cell_length_c       6.606816718337144
_cell_angle_alpha    59.99999977925745
_cell_angle_beta     60.000000036697465
_cell_angle_gamma    59.99999941279379

_space_group_name_H-M_alt    "P 1"
_space_group_IT_number       1

loop_
  _space_group_symop_operation_xyz
  'x, y, z'

loop_
  _atom_site_type_symbol
  _atom_site_label
  _atom_site_symmetry_multiplicity
  _atom_site_fract_x
  _atom_site_fract_y
  _atom_site_fract_z
  _atom_site_occupancy
  Cr  Cr1       1.0  0.2500000658661556  0.2499998298149028  0.2500001784163847  1.0000
  Cr  Cr2       1.0  0.7500001426820658  0.7500002309484726  0.7500000860042937  1.0000
  Mn  Mn1       1.0  1.1210384907414686e-08  0.9999999925849625  0.9999999663169736  1.0000
  Se  Se1       1.0  0.24924832423806917  0.24924827570517855  0.7507516251069373  1.0000
  Se  Se2       1.0  0.7507516511730213  0.7507517294454193  0.2492482509056398  1.0000
  Se  Se3       1.0  0.7507516823740694  0.24924830521907043  0.24924829538676868  1.0000
  Se  Se4       1.0  0.24924812027413315  0.7507517777894237  0.7507516492685392  1.0000
  Se  Se5       1.0  0.2492482668867087  0.7507517103313245  0.24924828043988417  1.0000
  Se  Se6       1.0  0.750751741610377  0.24924814837227982  0.7507516719298396  1.0000
