data_image0
_chemical_formula_structural       Cr2MnI6
_chemical_formula_sum              "Cr2 Mn1 I6"
_cell_length_a       7.58109891896665
_cell_length_b       7.5810988796470875
_cell_length_c       7.5810991497334355
_cell_angle_alpha    59.99999976048862
_cell_angle_beta     59.999999674890134
_cell_angle_gamma    60.000000058517315

_space_group_name_H-M_alt    "P 1"
_space_group_IT_number       1

loop_
  _space_group_symop_operation_xyz
  'x, y, z'

loop_
  _atom_site_type_symbol
  _atom_site_label
  _atom_site_symmetry_multiplicity
  _atom_site_fract_x
  _atom_site_fract_y
  _atom_site_fract_z
  _atom_site_occupancy
  Cr  Cr1       1.0  0.25000006591560636  0.25000010574209175  0.24999982689478825  1.0000
  Cr  Cr2       1.0  0.7499999052980085  0.749999864879498  0.7499999757556581  1.0000
  Mn  Mn1       1.0  0.9999999855526761  3.87725817028157e-08  9.33629664796114e-08  1.0000
  I   I1        1.0  0.2490400878062845  0.24904009743852726  0.7509599750977708  1.0000
  I   I2        1.0  0.7509598299129663  0.7509598828762105  0.2490401976877475  1.0000
  I   I3        1.0  0.7509599627982315  0.24904006976057497  0.24904008471095004  1.0000
  I   I4        1.0  0.24904028505770026  0.7509597974674682  0.7509598041132742  1.0000
  I   I5        1.0  0.24904010558161355  0.7509599097356043  0.24904013256027438  1.0000
  I   I6        1.0  0.750959770379484  0.24904023697812586  0.7509599159085383  1.0000
