data_image0
_chemical_formula_structural       Cr2MnF6
_chemical_formula_sum              "Cr2 Mn1 F6"
_cell_length_a       5.426312732780831
_cell_length_b       5.426312641142471
_cell_length_c       5.42631252488934
_cell_angle_alpha    60.000002363519876
_cell_angle_beta     60.00000225767103
_cell_angle_gamma    60.00000002090007

_space_group_name_H-M_alt    "P 1"
_space_group_IT_number       1

loop_
  _space_group_symop_operation_xyz
  'x, y, z'

loop_
  _atom_site_type_symbol
  _atom_site_label
  _atom_site_symmetry_multiplicity
  _atom_site_fract_x
  _atom_site_fract_y
  _atom_site_fract_z
  _atom_site_occupancy
  Cr  Cr1       1.0  0.24999989270482237  0.25000050984783223  0.24999990462880115  1.0000
  Cr  Cr2       1.0  0.7500001245860661  0.749999839014471  0.7499996264093375  1.0000
  Mn  Mn1       1.0  6.826826827597239e-08  0.9999999164892208  5.000731337487193e-08  1.0000
  F   F1        1.0  0.24597098543564638  0.24597091017430137  0.7540290654254784  1.0000
  F   F2        1.0  0.7540288219871293  0.754029136243569  0.2459711272007914  1.0000
  F   F3        1.0  0.7540289112694475  0.24597116318975  0.24597088293926875  1.0000
  F   F4        1.0  0.2459710498205209  0.7540287478052311  0.7540291439207194  1.0000
  F   F5        1.0  0.24597088687752672  0.7540288575420989  0.24597122926905904  1.0000
  F   F6        1.0  0.7540292615176842  0.2459709767132477  0.75402892106672  1.0000
