data_image0
_chemical_formula_structural       Cr2MnBr6
_chemical_formula_sum              "Cr2 Mn1 Br6"
_cell_length_a       7.009357002055236
_cell_length_b       7.009357174712685
_cell_length_c       7.009357007543707
_cell_angle_alpha    60.000000978518905
_cell_angle_beta     59.99999993155152
_cell_angle_gamma    60.00000039529207

_space_group_name_H-M_alt    "P 1"
_space_group_IT_number       1

loop_
  _space_group_symop_operation_xyz
  'x, y, z'

loop_
  _atom_site_type_symbol
  _atom_site_label
  _atom_site_symmetry_multiplicity
  _atom_site_fract_x
  _atom_site_fract_y
  _atom_site_fract_z
  _atom_site_occupancy
  Cr  Cr1       1.0  0.24999996141054842  0.25000001030878527  0.2499999996133879  1.0000
  Cr  Cr2       1.0  0.7499999838076518  0.7499999348248646  0.7499998530098032  1.0000
  Mn  Mn1       1.0  0.9999999841915165  2.2714898038359464e-08  9.641329967945323e-08  1.0000
  Br  Br1       1.0  0.23847179115044326  0.2384717641100187  0.7615282272651973  1.0000
  Br  Br2       1.0  0.7615282004424744  0.7615282544102241  0.23847181942359905  1.0000
  Br  Br3       1.0  0.7615282761052777  0.23847174487488443  0.2384717787350679  1.0000
  Br  Br4       1.0  0.23847181398156458  0.7615282055006646  0.7615282256724896  1.0000
  Br  Br5       1.0  0.2384717269810093  0.7615282497222144  0.23847181035114778  1.0000
  Br  Br6       1.0  0.7615282736966913  0.23847181073322432  0.761528188001029  1.0000
