data_image0
_chemical_formula_structural       Cr2MnO6
_chemical_formula_sum              "Cr2 Mn1 O6"
_cell_length_a       5.446364909929432
_cell_length_b       5.446364673629667
_cell_length_c       5.446364969067013
_cell_angle_alpha    59.999997388275965
_cell_angle_beta     59.99999901906299
_cell_angle_gamma    60.00000041489409

_space_group_name_H-M_alt    "P 1"
_space_group_IT_number       1

loop_
  _space_group_symop_operation_xyz
  'x, y, z'

loop_
  _atom_site_type_symbol
  _atom_site_label
  _atom_site_symmetry_multiplicity
  _atom_site_fract_x
  _atom_site_fract_y
  _atom_site_fract_z
  _atom_site_occupancy
  Cr  Cr1       1.0  0.2500005342931648  0.25000034865077203  0.2499995145827796  1.0000
  Cr  Cr2       1.0  0.750000403091682  0.7500002566451278  0.7499993565232353  1.0000
  Mn  Mn1       1.0  0.9999999050682022  0.9999998268471452  2.038136343694384e-07  1.0000
  O   O1        1.0  0.24187937643973856  0.2418809334001957  0.7581198646537481  1.0000
  O   O2        1.0  0.7581203185157458  0.7581190804774837  0.24188031262651477  1.0000
  O   O3        1.0  0.758119305726223  0.24187985752513053  0.24188067160922158  1.0000
  O   O4        1.0  0.24188053616509975  0.7581198999963824  0.7581197017599065  1.0000
  O   O5        1.0  0.2418802799575104  0.7581200677245213  0.24188017227131375  1.0000
  O   O6        1.0  0.7581193446516229  0.24187974376670582  0.758120196457963  1.0000
