data_image0
_chemical_formula_structural       Cr2MnCl6
_chemical_formula_sum              "Cr2 Mn1 Cl6"
_cell_length_a       6.591925582673291
_cell_length_b       6.591925547676401
_cell_length_c       6.591925433184554
_cell_angle_alpha    60.000000288414014
_cell_angle_beta     60.000000247688845
_cell_angle_gamma    59.99999984642132

_space_group_name_H-M_alt    "P 1"
_space_group_IT_number       1

loop_
  _space_group_symop_operation_xyz
  'x, y, z'

loop_
  _atom_site_type_symbol
  _atom_site_label
  _atom_site_symmetry_multiplicity
  _atom_site_fract_x
  _atom_site_fract_y
  _atom_site_fract_z
  _atom_site_occupancy
  Cr  Cr1       1.0  0.2499999951933269  0.24999998938870366  0.2500000810693248  1.0000
  Cr  Cr2       1.0  0.749999907707156  0.7500001019383  0.7499998982037348  1.0000
  Mn  Mn1       1.0  1.6666830210996766e-08  4.459072936280155e-08  8.813413784995399e-09  1.0000
  Cl  Cl1       1.0  0.24477503144306637  0.24477499011454143  0.75522501003437  1.0000
  Cl  Cl2       1.0  0.7552249569047508  0.7552248764008674  0.24477510263513305  1.0000
  Cl  Cl3       1.0  0.7552250494440486  0.24477492769162842  0.24477495577398886  1.0000
  Cl  Cl4       1.0  0.24477509319201682  0.755225054016498  0.7552249068624645  1.0000
  Cl  Cl5       1.0  0.2447749860596142  0.7552249785271795  0.24477502811435825  1.0000
  Cl  Cl6       1.0  0.7552249537690633  0.2447750440557827  0.7552250171278709  1.0000
