data_image0
_chemical_formula_structural       Cr2NbF6
_chemical_formula_sum              "Cr2 Nb1 F6"
_cell_length_a       5.498950503702921
_cell_length_b       5.498950836552179
_cell_length_c       5.498950604679913
_cell_angle_alpha    59.999998651782455
_cell_angle_beta     59.99999715373638
_cell_angle_gamma    59.99999955545957

_space_group_name_H-M_alt    "P 1"
_space_group_IT_number       1

loop_
  _space_group_symop_operation_xyz
  'x, y, z'

loop_
  _atom_site_type_symbol
  _atom_site_label
  _atom_site_symmetry_multiplicity
  _atom_site_fract_x
  _atom_site_fract_y
  _atom_site_fract_z
  _atom_site_occupancy
  Cr  Cr1       1.0  0.24999998186543898  0.25000000492589514  0.2500000549590523  1.0000
  Cr  Cr2       1.0  0.7499999859812434  0.7500000259138558  0.7500000645569269  1.0000
  Nb  Nb1       1.0  0.9999999980275216  0.9999999933182995  0.9999999752306289  1.0000
  F   F1        1.0  0.2557354612863071  0.25573540329976235  0.7442645499531771  1.0000
  F   F2        1.0  0.7442645394593751  0.7442645540412807  0.2557353570909717  1.0000
  F   F3        1.0  0.7442646093292156  0.25573540495581654  0.25573543773716295  1.0000
  F   F4        1.0  0.2557354333917367  0.7442645902481967  0.7442645566848795  1.0000
  F   F5        1.0  0.25573542331283877  0.7442645968522095  0.2557354129315941  1.0000
  F   F6        1.0  0.7442645514484482  0.255735438442012  0.7442645663287167  1.0000
