data_image0
_chemical_formula_structural       Cr2NbBr6
_chemical_formula_sum              "Cr2 Nb1 Br6"
_cell_length_a       7.298834005038679
_cell_length_b       7.298833937604342
_cell_length_c       7.2988335350965805
_cell_angle_alpha    60.00000129735311
_cell_angle_beta     60.00000191420532
_cell_angle_gamma    60.00000015219553

_space_group_name_H-M_alt    "P 1"
_space_group_IT_number       1

loop_
  _space_group_symop_operation_xyz
  'x, y, z'

loop_
  _atom_site_type_symbol
  _atom_site_label
  _atom_site_symmetry_multiplicity
  _atom_site_fract_x
  _atom_site_fract_y
  _atom_site_fract_z
  _atom_site_occupancy
  Cr  Cr1       1.0  0.24999998494068823  0.25000000870320715  0.24999999663066666  1.0000
  Cr  Cr2       1.0  0.7499999832356455  0.7499999740915988  0.7500000140249585  1.0000
  Nb  Nb1       1.0  0.9999999824056904  1.0068004647649811e-08  0.99999996677094  1.0000
  Br  Br1       1.0  0.24727456064084036  0.24727454703396426  0.7527254673680499  1.0000
  Br  Br2       1.0  0.7527254854061053  0.7527254726768567  0.2472745434377031  1.0000
  Br  Br3       1.0  0.7527254701623395  0.2472744958782758  0.2472744735941537  1.0000
  Br  Br4       1.0  0.24727456893410044  0.7527254734925243  0.7527254466597342  1.0000
  Br  Br5       1.0  0.2472745306682654  0.7527254207256256  0.24727463180774203  1.0000
  Br  Br6       1.0  0.7527254218467279  0.2472746090532003  0.7527254399111318  1.0000
