data_image0
_chemical_formula_structural       Cr2NbCl6
_chemical_formula_sum              "Cr2 Nb1 Cl6"
_cell_length_a       6.9545068334750635
_cell_length_b       6.9545068580493945
_cell_length_c       6.954507381505813
_cell_angle_alpha    59.999998028413536
_cell_angle_beta     59.99999703000864
_cell_angle_gamma    59.999998724813985

_space_group_name_H-M_alt    "P 1"
_space_group_IT_number       1

loop_
  _space_group_symop_operation_xyz
  'x, y, z'

loop_
  _atom_site_type_symbol
  _atom_site_label
  _atom_site_symmetry_multiplicity
  _atom_site_fract_x
  _atom_site_fract_y
  _atom_site_fract_z
  _atom_site_occupancy
  Cr  Cr1       1.0  0.25000005822044097  0.24999992251923336  0.24999996380151854  1.0000
  Cr  Cr2       1.0  0.7499999932240807  0.7500000528528001  0.7499999818293486  1.0000
  Nb  Nb1       1.0  0.9999999946506003  0.9999999612562208  0.9999999889745128  1.0000
  Cl  Cl1       1.0  0.24460496005275234  0.2446049922789773  0.7553949965838209  1.0000
  Cl  Cl2       1.0  0.7553949987451923  0.7553950817135848  0.244604976256315  1.0000
  Cl  Cl3       1.0  0.7553950962564764  0.24460493316435128  0.24460497284235252  1.0000
  Cl  Cl4       1.0  0.2446048382748909  0.7553950492520064  0.7553951197495777  1.0000
  Cl  Cl5       1.0  0.24460493707528183  0.7553950772492911  0.24460493778006315  1.0000
  Cl  Cl6       1.0  0.7553951289096347  0.24460491925571354  0.755395059034107  1.0000
