data_image0
_chemical_formula_structural       Cr2NiI6
_chemical_formula_sum              "Cr2 Ni1 I6"
_cell_length_a       7.448359037375029
_cell_length_b       7.448359021681112
_cell_length_c       7.448359039605827
_cell_angle_alpha    59.99999993058514
_cell_angle_beta     60.000000238720226
_cell_angle_gamma    60.00000040016475

_space_group_name_H-M_alt    "P 1"
_space_group_IT_number       1

loop_
  _space_group_symop_operation_xyz
  'x, y, z'

loop_
  _atom_site_type_symbol
  _atom_site_label
  _atom_site_symmetry_multiplicity
  _atom_site_fract_x
  _atom_site_fract_y
  _atom_site_fract_z
  _atom_site_occupancy
  Cr  Cr1       1.0  0.24999999237622794  0.24999999602197878  0.2500000049737879  1.0000
  Cr  Cr2       1.0  0.7499999879322053  0.7500000719260032  0.7499999434231727  1.0000
  Ni  Ni1       1.0  0.999999997353515  3.288630042047977e-09  1.3104703489726194e-08  1.0000
  I   I1        1.0  0.25077133166395044  0.2507713207753303  0.7492286689534873  1.0000
  I   I2        1.0  0.7492286629274825  0.7492286485137497  0.2507713619087525  1.0000
  I   I3        1.0  0.7492286782909715  0.2507713036783129  0.25077135084981783  1.0000
  I   I4        1.0  0.2507713315210923  0.7492286804096023  0.7492286556046458  1.0000
  I   I5        1.0  0.2507713237623391  0.7492286627328456  0.2507713423183525  1.0000
  I   I6        1.0  0.7492286935351147  0.25077130820054944  0.7492286709984087  1.0000
