data_image0
_chemical_formula_structural       Cr2NiS6
_chemical_formula_sum              "Cr2 Ni1 S6"
_cell_length_a       6.218158190529537
_cell_length_b       6.218158230089592
_cell_length_c       6.218158132818502
_cell_angle_alpha    60.00000083805786
_cell_angle_beta     60.000000334849275
_cell_angle_gamma    60.00000031110828

_space_group_name_H-M_alt    "P 1"
_space_group_IT_number       1

loop_
  _space_group_symop_operation_xyz
  'x, y, z'

loop_
  _atom_site_type_symbol
  _atom_site_label
  _atom_site_symmetry_multiplicity
  _atom_site_fract_x
  _atom_site_fract_y
  _atom_site_fract_z
  _atom_site_occupancy
  Cr  Cr1       1.0  0.24999996031216362  0.24999992322636097  0.2500001897301565  1.0000
  Cr  Cr2       1.0  0.749999982484613  0.7500000277001391  0.7499998651348783  1.0000
  Ni  Ni1       1.0  0.999999985820016  0.999999964546725  6.18050743795849e-08  1.0000
  S   S1        1.0  0.24672303532217157  0.24672307331728388  0.7532768895899128  1.0000
  S   S2        1.0  0.7532768995960992  0.7532769012447329  0.24672310271804554  1.0000
  S   S3        1.0  0.7532768652283002  0.24672305315234966  0.2467231291460821  1.0000
  S   S4        1.0  0.24672307495831888  0.7532770671620208  0.7532768278563572  1.0000
  S   S5        1.0  0.24672310379474433  0.7532769078042298  0.24672311421333762  1.0000
  S   S6        1.0  0.753277091081624  0.24672310024143515  0.7532767924850919  1.0000
