data_image0
_chemical_formula_structural       Cr2NbI6
_chemical_formula_sum              "Cr2 Nb1 I6"
_cell_length_a       7.946373748457814
_cell_length_b       7.946373702351622
_cell_length_c       7.946373785090512
_cell_angle_alpha    59.99999996568514
_cell_angle_beta     60.00000014735542
_cell_angle_gamma    59.999999408653714

_space_group_name_H-M_alt    "P 1"
_space_group_IT_number       1

loop_
  _space_group_symop_operation_xyz
  'x, y, z'

loop_
  _atom_site_type_symbol
  _atom_site_label
  _atom_site_symmetry_multiplicity
  _atom_site_fract_x
  _atom_site_fract_y
  _atom_site_fract_z
  _atom_site_occupancy
  Cr  Cr1       1.0  0.2499999832718456  0.2500000052384524  0.24999998140829466  1.0000
  Cr  Cr2       1.0  0.7499999975039368  0.7500000295867206  0.7499999662992997  1.0000
  Nb  Nb1       1.0  0.9999999760147209  8.939323223679826e-08  2.26671918532433e-08  1.0000
  I   I1        1.0  0.24755317434493654  0.2475532273739678  0.7524468059332992  1.0000
  I   I2        1.0  0.7524467622808269  0.7524467350118627  0.2475532592154507  1.0000
  I   I3        1.0  0.7524468264144549  0.24755317765691962  0.24755316231530214  1.0000
  I   I4        1.0  0.24755324605629664  0.752446747738607  0.7524467640571754  1.0000
  I   I5        1.0  0.247553231324798  0.7524467742784305  0.24755322451032094  1.0000
  I   I6        1.0  0.7524467943515452  0.2475532173913892  0.7524468091567289  1.0000
