data_image0
_chemical_formula_structural       Cr2NiF6
_chemical_formula_sum              "Cr2 Ni1 F6"
_cell_length_a       5.354154768786009
_cell_length_b       5.35415482227519
_cell_length_c       5.354154661872731
_cell_angle_alpha    60.00000077256128
_cell_angle_beta     59.99999943658783
_cell_angle_gamma    59.99999924967193

_space_group_name_H-M_alt    "P 1"
_space_group_IT_number       1

loop_
  _space_group_symop_operation_xyz
  'x, y, z'

loop_
  _atom_site_type_symbol
  _atom_site_label
  _atom_site_symmetry_multiplicity
  _atom_site_fract_x
  _atom_site_fract_y
  _atom_site_fract_z
  _atom_site_occupancy
  Cr  Cr1       1.0  0.2499996981992427  0.2500002050646516  0.2500000436001967  1.0000
  Cr  Cr2       1.0  0.7499997739482783  0.750000162275621  0.7499999260667614  1.0000
  Ni  Ni1       1.0  1.5858997068641822e-08  0.9999999977125335  0.9999999465215229  1.0000
  F   F1        1.0  0.24878038680323852  0.2487802386244432  0.751219721578588  1.0000
  F   F2        1.0  0.751219813994957  0.7512195408369846  0.248780306574334  1.0000
  F   F3        1.0  0.7512197431432756  0.24878018316772005  0.24878043707177233  1.0000
  F   F4        1.0  0.24878039515328362  0.7512197449790172  0.7512196320361944  1.0000
  F   F5        1.0  0.24878040711467075  0.7512196112264609  0.24878023051642448  1.0000
  F   F6        1.0  0.7512197536191947  0.24878034665733761  0.7512197023095586  1.0000
