data_image0
_chemical_formula_structural       Cr2NiSe6
_chemical_formula_sum              "Cr2 Ni1 Se6"
_cell_length_a       6.509531754148269
_cell_length_b       6.50953158261633
_cell_length_c       6.509531547661836
_cell_angle_alpha    60.00000017554067
_cell_angle_beta     59.99999991532039
_cell_angle_gamma    59.999999149032085

_space_group_name_H-M_alt    "P 1"
_space_group_IT_number       1

loop_
  _space_group_symop_operation_xyz
  'x, y, z'

loop_
  _atom_site_type_symbol
  _atom_site_label
  _atom_site_symmetry_multiplicity
  _atom_site_fract_x
  _atom_site_fract_y
  _atom_site_fract_z
  _atom_site_occupancy
  Cr  Cr1       1.0  0.24999996161126206  0.2500000710902194  0.2500000208557034  1.0000
  Cr  Cr2       1.0  0.7499997400412515  0.7500001474194222  0.7500002032218005  1.0000
  Ni  Ni1       1.0  1.211268177724807e-08  0.9999999849482887  0.999999998397097  1.0000
  Se  Se1       1.0  0.2522269676253069  0.25222682902108906  0.7477730829720975  1.0000
  Se  Se2       1.0  0.7477731128496902  0.74777312043921  0.2522268327443715  1.0000
  Se  Se3       1.0  0.7477731750494219  0.252226868493089  0.25222685391176125  1.0000
  Se  Se4       1.0  0.25222693685398523  0.7477730452193957  0.7477731192679284  1.0000
  Se  Se5       1.0  0.25222699319287106  0.7477730581593948  0.25222679587001573  1.0000
  Se  Se6       1.0  0.7477731160943157  0.252226868723337  0.7477730860049646  1.0000
