data_image0
_chemical_formula_structural       Cr2NiO6
_chemical_formula_sum              "Cr2 Ni1 O6"
_cell_length_a       4.766411803253104
_cell_length_b       4.7664118304833645
_cell_length_c       4.766411910724964
_cell_angle_alpha    59.99999937371527
_cell_angle_beta     59.999999769308815
_cell_angle_gamma    60.00000078911294

_space_group_name_H-M_alt    "P 1"
_space_group_IT_number       1

loop_
  _space_group_symop_operation_xyz
  'x, y, z'

loop_
  _atom_site_type_symbol
  _atom_site_label
  _atom_site_symmetry_multiplicity
  _atom_site_fract_x
  _atom_site_fract_y
  _atom_site_fract_z
  _atom_site_occupancy
  Cr  Cr1       1.0  0.24999994147534374  0.2500000636173017  0.25000021746237516  1.0000
  Cr  Cr2       1.0  0.750000054722234  0.7499999287596238  0.7500000493709688  1.0000
  Ni  Ni1       1.0  7.561642170041062e-09  0.9999999845828069  0.9999999577714624  1.0000
  O   O1        1.0  0.2560336714505842  0.2560338147395718  0.7439663520260521  1.0000
  O   O2        1.0  0.7439663806132462  0.7439661699287579  0.25603386135626455  1.0000
  O   O3        1.0  0.7439660607126174  0.2560338340410304  0.2560336394514677  1.0000
  O   O4        1.0  0.256033740280477  0.7439663587594068  0.7439660981707903  1.0000
  O   O5        1.0  0.2560338149010308  0.7439662290469846  0.2560336487172146  1.0000
  O   O6        1.0  0.7439663349980744  0.25603362200567215  0.743966152462385  1.0000
