data_image0
_chemical_formula_structural       Cr2PdBr6
_chemical_formula_sum              "Cr2 Pd1 Br6"
_cell_length_a       7.046221830298178
_cell_length_b       7.0462218060506405
_cell_length_c       7.046221815127817
_cell_angle_alpha    59.99999971728536
_cell_angle_beta     59.99999965257013
_cell_angle_gamma    59.9999998066418

_space_group_name_H-M_alt    "P 1"
_space_group_IT_number       1

loop_
  _space_group_symop_operation_xyz
  'x, y, z'

loop_
  _atom_site_type_symbol
  _atom_site_label
  _atom_site_symmetry_multiplicity
  _atom_site_fract_x
  _atom_site_fract_y
  _atom_site_fract_z
  _atom_site_occupancy
  Cr  Cr1       1.0  0.24999997652968856  0.25000003106578456  0.25000002226817386  1.0000
  Cr  Cr2       1.0  0.7500000551794034  0.7499999524065333  0.7500000289903538  1.0000
  Pd  Pd1       1.0  0.9999999881481685  0.9999999913092086  4.594510373274452e-09  1.0000
  Br  Br1       1.0  0.2496408567554115  0.24964089397066863  0.7503591056359793  1.0000
  Br  Br2       1.0  0.7503591216189756  0.7503591364319228  0.24964086083434645  1.0000
  Br  Br3       1.0  0.7503591425908187  0.24964087201657617  0.24964085820799126  1.0000
  Br  Br4       1.0  0.2496408561444328  0.7503591218846914  0.7503591248477657  1.0000
  Br  Br5       1.0  0.24964086905779118  0.7503591189791237  0.2496408821032949  1.0000
  Br  Br6       1.0  0.7503591361330586  0.2496408801366187  0.7503591135670293  1.0000
