data_image0
_chemical_formula_structural       Cr2PdI6
_chemical_formula_sum              "Cr2 Pd1 I6"
_cell_length_a       7.565369984608559
_cell_length_b       7.56537001798911
_cell_length_c       7.565369981777399
_cell_angle_alpha    59.99999958066727
_cell_angle_beta     59.99999998532942
_cell_angle_gamma    60.00000017680281

_space_group_name_H-M_alt    "P 1"
_space_group_IT_number       1

loop_
  _space_group_symop_operation_xyz
  'x, y, z'

loop_
  _atom_site_type_symbol
  _atom_site_label
  _atom_site_symmetry_multiplicity
  _atom_site_fract_x
  _atom_site_fract_y
  _atom_site_fract_z
  _atom_site_occupancy
  Cr  Cr1       1.0  0.24999998816489732  0.24999999707834553  0.2499999862911819  1.0000
  Cr  Cr2       1.0  0.7499999892381389  0.7500000543714722  0.7500000193567853  1.0000
  Pd  Pd1       1.0  9.419656426386705e-09  1.2951063642684985e-08  2.3181762813908737e-08  1.0000
  I   I1        1.0  0.25264698924548923  0.2526469452413732  0.7473530353324291  1.0000
  I   I2        1.0  0.7473530194559508  0.7473530123132319  0.2526469698904447  1.0000
  I   I3        1.0  0.7473530456834135  0.25264696641542117  0.25264696088211597  1.0000
  I   I4        1.0  0.25264699533214563  0.747353004090248  0.7473530032027924  1.0000
  I   I5        1.0  0.2526469544265901  0.7473530493702706  0.25264697354898014  1.0000
  I   I6        1.0  0.74735300953341  0.2526469599885897  0.7473530268206736  1.0000
