data_image0
_chemical_formula_structural       Cr2PSe6
_chemical_formula_sum              "Cr2 P1 Se6"
_cell_length_a       6.45648528058875
_cell_length_b       6.45648528595346
_cell_length_c       6.456485096184893
_cell_angle_alpha    60.00000016049281
_cell_angle_beta     60.000000058550405
_cell_angle_gamma    60.00000028235836

_space_group_name_H-M_alt    "P 1"
_space_group_IT_number       1

loop_
  _space_group_symop_operation_xyz
  'x, y, z'

loop_
  _atom_site_type_symbol
  _atom_site_label
  _atom_site_symmetry_multiplicity
  _atom_site_fract_x
  _atom_site_fract_y
  _atom_site_fract_z
  _atom_site_occupancy
  Cr  Cr1       1.0  0.2500001742138201  0.25000003484915323  0.24999977794230963  1.0000
  Cr  Cr2       1.0  0.7499999622661669  0.750000041949031  0.7500001517813148  1.0000
  P   P1        1.0  8.743815606131339e-09  0.9999999791338585  9.158823690147992e-09  1.0000
  Se  Se1       1.0  0.2500095233211571  0.2500094615213488  0.7499905607192078  1.0000
  Se  Se2       1.0  0.7499904385803307  0.7499905166368939  0.2500094483069162  1.0000
  Se  Se3       1.0  0.7499904674616685  0.2500094696878345  0.25000951422041107  1.0000
  Se  Se4       1.0  0.25000947563492626  0.7499904629442811  0.7499905440083571  1.0000
  Se  Se5       1.0  0.25000951337423927  0.7499905455417466  0.2500094427766985  1.0000
  Se  Se6       1.0  0.7499904367117695  0.2500094895241546  0.7499905468009961  1.0000
