data_image0
_chemical_formula_structural       Cr2PdF6
_chemical_formula_sum              "Cr2 Pd1 F6"
_cell_length_a       5.618958912713766
_cell_length_b       5.618958655545829
_cell_length_c       5.618959226913173
_cell_angle_alpha    60.000000646519204
_cell_angle_beta     60.00000016031396
_cell_angle_gamma    60.00000042045684

_space_group_name_H-M_alt    "P 1"
_space_group_IT_number       1

loop_
  _space_group_symop_operation_xyz
  'x, y, z'

loop_
  _atom_site_type_symbol
  _atom_site_label
  _atom_site_symmetry_multiplicity
  _atom_site_fract_x
  _atom_site_fract_y
  _atom_site_fract_z
  _atom_site_occupancy
  Cr  Cr1       1.0  0.2500002730517321  0.24999983211440716  0.2500000560592805  1.0000
  Cr  Cr2       1.0  0.7500000867315202  0.7500001153681154  0.7499997817346762  1.0000
  Pd  Pd1       1.0  2.5322481472484532e-09  1.089832347779493e-08  0.9999999256565321  1.0000
  F   F1        1.0  0.2531018454224766  0.25310183071162606  0.7468981615402343  1.0000
  F   F2        1.0  0.7468979937563107  0.7468982606287968  0.25310191623798256  1.0000
  F   F3        1.0  0.7468981962578995  0.25310166905878656  0.2531019721548161  1.0000
  F   F4        1.0  0.253101672211016  0.7468983590713447  0.7468980923287678  1.0000
  F   F5        1.0  0.2531018099100073  0.7468980700949123  0.25310181032345813  1.0000
  F   F6        1.0  0.7468981370873459  0.2531018272553058  0.7468982322342572  1.0000
