data_image0
_chemical_formula_structural       Cr2PS6
_chemical_formula_sum              "Cr2 P1 S6"
_cell_length_a       6.313271073675771
_cell_length_b       6.313271129363974
_cell_length_c       6.313271090126732
_cell_angle_alpha    60.00000211905899
_cell_angle_beta     59.99999965511865
_cell_angle_gamma    59.99999951422306

_space_group_name_H-M_alt    "P 1"
_space_group_IT_number       1

loop_
  _space_group_symop_operation_xyz
  'x, y, z'

loop_
  _atom_site_type_symbol
  _atom_site_label
  _atom_site_symmetry_multiplicity
  _atom_site_fract_x
  _atom_site_fract_y
  _atom_site_fract_z
  _atom_site_occupancy
  Cr  Cr1       1.0  0.25000012109479414  0.2499998286398369  0.24999992608341248  1.0000
  Cr  Cr2       1.0  0.7500000171645753  0.7500002444411004  0.7499999727924852  1.0000
  P   P1        1.0  6.336526654836406e-09  1.9399527876106053e-08  0.9999999538687094  1.0000
  S   S1        1.0  0.2406641031452637  0.24066403615220322  0.7593360933214004  1.0000
  S   S2        1.0  0.7593359425576347  0.7593359030719904  0.24066405656605183  1.0000
  S   S3        1.0  0.7593358604643153  0.2406638771108535  0.2406642442919979  1.0000
  S   S4        1.0  0.24066393608816128  0.7593360194343768  0.7593358471786709  1.0000
  S   S5        1.0  0.24066415027173574  0.7593360503555473  0.24066393733032976  1.0000
  S   S6        1.0  0.7593358785801673  0.24066400526581427  0.7593359505327372  1.0000
