data_image0
_chemical_formula_structural       Cr2PdCl6
_chemical_formula_sum              "Cr2 Pd1 Cl6"
_cell_length_a       6.652769087967583
_cell_length_b       6.65276918624151
_cell_length_c       6.652769145161446
_cell_angle_alpha    59.9999993466914
_cell_angle_beta     60.00000063462325
_cell_angle_gamma    59.99999917752877

_space_group_name_H-M_alt    "P 1"
_space_group_IT_number       1

loop_
  _space_group_symop_operation_xyz
  'x, y, z'

loop_
  _atom_site_type_symbol
  _atom_site_label
  _atom_site_symmetry_multiplicity
  _atom_site_fract_x
  _atom_site_fract_y
  _atom_site_fract_z
  _atom_site_occupancy
  Cr  Cr1       1.0  0.25000006280447007  0.24999998353288974  0.2500000472067553  1.0000
  Cr  Cr2       1.0  0.750000020631034  0.7500000113501883  0.7500000553442797  1.0000
  Pd  Pd1       1.0  0.9999999537505869  0.9999999981590459  0.9999999804543125  1.0000
  Cl  Cl1       1.0  0.24901521705464721  0.24901521512676325  0.7509847637083468  1.0000
  Cl  Cl2       1.0  0.7509847559989092  0.7509848036887333  0.24901520620083556  1.0000
  Cl  Cl3       1.0  0.7509847971564649  0.24901520441994862  0.2490151499310199  1.0000
  Cl  Cl4       1.0  0.2490151352577653  0.7509848217593688  0.7509848230877132  1.0000
  Cl  Cl5       1.0  0.24901523878347234  0.750984804450118  0.24901515543166788  1.0000
  Cl  Cl6       1.0  0.7509848178108347  0.24901517202341217  0.7509848149219917  1.0000
