data_image0
_chemical_formula_structural       Cr2PO6
_chemical_formula_sum              "Cr2 P1 O6"
_cell_length_a       4.56706719352059
_cell_length_b       4.567069522644638
_cell_length_c       4.567067887758054
_cell_angle_alpha    60.00000508133377
_cell_angle_beta     59.999980854972286
_cell_angle_gamma    59.99998379488353

_space_group_name_H-M_alt    "P 1"
_space_group_IT_number       1

loop_
  _space_group_symop_operation_xyz
  'x, y, z'

loop_
  _atom_site_type_symbol
  _atom_site_label
  _atom_site_symmetry_multiplicity
  _atom_site_fract_x
  _atom_site_fract_y
  _atom_site_fract_z
  _atom_site_occupancy
  Cr  Cr1       1.0  0.25002684378531875  0.2500052827573337  0.24999627198693705  1.0000
  Cr  Cr2       1.0  0.7500351594796075  0.7499931424464972  0.7499986270193522  1.0000
  P   P1        1.0  3.121994468721995e-07  5.108612499957481e-06  0.9999942986156396  1.0000
  O   O1        1.0  0.26492254519603853  0.2649440165879719  0.7350618059643255  1.0000
  O   O2        1.0  0.7350537958605492  0.7350552587345414  0.26494072842816285  1.0000
  O   O3        1.0  0.7350467592831432  0.2649382224435775  0.26494153812234367  1.0000
  O   O4        1.0  0.26493217544803926  0.7350624875804151  0.7350597396794297  1.0000
  O   O5        1.0  0.2649321785570461  0.7350622920413086  0.2649406143792605  1.0000
  O   O6        1.0  0.7350502882611247  0.26493399588082406  0.735065078154016  1.0000
