data_image0
_chemical_formula_structural       Cr2SiSe6
_chemical_formula_sum              "Cr2 Si1 Se6"
_cell_length_a       6.552545393662636
_cell_length_b       6.552545204992413
_cell_length_c       6.552545335952842
_cell_angle_alpha    59.999999953503426
_cell_angle_beta     59.99999943630419
_cell_angle_gamma    60.000000424292196

_space_group_name_H-M_alt    "P 1"
_space_group_IT_number       1

loop_
  _space_group_symop_operation_xyz
  'x, y, z'

loop_
  _atom_site_type_symbol
  _atom_site_label
  _atom_site_symmetry_multiplicity
  _atom_site_fract_x
  _atom_site_fract_y
  _atom_site_fract_z
  _atom_site_occupancy
  Cr  Cr1       1.0  0.2500002803446479  0.24999986599888052  0.24999993583960606  1.0000
  Cr  Cr2       1.0  0.7499997801333272  0.7500002166730961  0.7499999355373143  1.0000
  Si  Si1       1.0  1.5753054351979885e-08  5.60733998701649e-09  1.0685545809111407e-08  1.0000
  Se  Se1       1.0  0.25454830533768275  0.2545481095205978  0.7454517774647995  1.0000
  Se  Se2       1.0  0.7454516767323889  0.7454518647428129  0.2545482056338494  1.0000
  Se  Se3       1.0  0.7454517096135223  0.25454816688525617  0.2545483086823244  1.0000
  Se  Se4       1.0  0.25454831768782754  0.7454517456974206  0.7454517803130201  1.0000
  Se  Se5       1.0  0.25454825525072  0.7454517818113336  0.2545482369054443  1.0000
  Se  Se6       1.0  0.7454516665649513  0.25454824104901985  0.7454518054362916  1.0000
