data_image0
_chemical_formula_structural       Cr2SiTe6
_chemical_formula_sum              "Cr2 Si1 Te6"
_cell_length_a       7.133967760834484
_cell_length_b       7.133967524085495
_cell_length_c       7.133967608447775
_cell_angle_alpha    59.999999433325236
_cell_angle_beta     59.99999946548107
_cell_angle_gamma    59.99999980061498

_space_group_name_H-M_alt    "P 1"
_space_group_IT_number       1

loop_
  _space_group_symop_operation_xyz
  'x, y, z'

loop_
  _atom_site_type_symbol
  _atom_site_label
  _atom_site_symmetry_multiplicity
  _atom_site_fract_x
  _atom_site_fract_y
  _atom_site_fract_z
  _atom_site_occupancy
  Cr  Cr1       1.0  0.2499999188908733  0.24999996176024628  0.2500000045412894  1.0000
  Cr  Cr2       1.0  0.7499999288944065  0.7500000775600387  0.750000094901293  1.0000
  Si  Si1       1.0  2.0452630519307753e-08  3.090203024071456e-08  2.357559784361016e-09  1.0000
  Te  Te1       1.0  0.2564451584936258  0.256445055350365  0.7435549199866961  1.0000
  Te  Te2       1.0  0.7435548819550122  0.7435548964141695  0.2564450456008983  1.0000
  Te  Te3       1.0  0.7435549107514097  0.25644514451813594  0.2564450943515064  1.0000
  Te  Te4       1.0  0.2564451356469952  0.7435548913685914  0.7435548542349983  1.0000
  Te  Te5       1.0  0.2564451566634824  0.7435548660182494  0.2564450963456835  1.0000
  Te  Te6       1.0  0.7435548970284691  0.2564450702952703  0.7435548843632068  1.0000
