data_image0
_chemical_formula_structural       Cr2ScBr6
_chemical_formula_sum              "Cr2 Sc1 Br6"
_cell_length_a       7.207369259711041
_cell_length_b       7.20736918882668
_cell_length_c       7.207369201539083
_cell_angle_alpha    60.00000014536872
_cell_angle_beta     59.99999960480637
_cell_angle_gamma    60.0000005462305

_space_group_name_H-M_alt    "P 1"
_space_group_IT_number       1

loop_
  _space_group_symop_operation_xyz
  'x, y, z'

loop_
  _atom_site_type_symbol
  _atom_site_label
  _atom_site_symmetry_multiplicity
  _atom_site_fract_x
  _atom_site_fract_y
  _atom_site_fract_z
  _atom_site_occupancy
  Cr  Cr1       1.0  0.24999998049149513  0.25000003323404313  0.24999999910157975  1.0000
  Cr  Cr2       1.0  0.7500000259504682  0.7500000385274986  0.7499999495798735  1.0000
  Sc  Sc1       1.0  2.0730258554069742e-08  5.097886005769254e-09  0.9999999676613642  1.0000
  Br  Br1       1.0  0.25404721898150945  0.254047209930751  0.7459527497633595  1.0000
  Br  Br2       1.0  0.7459527864914711  0.7459527445794142  0.25404723166636606  1.0000
  Br  Br3       1.0  0.7459527620464345  0.2540472160609742  0.25404727617486517  1.0000
  Br  Br4       1.0  0.2540471618465582  0.7459528438055  0.7459527669025475  1.0000
  Br  Br5       1.0  0.25404728437969737  0.7459526783062994  0.2540472718424654  1.0000
  Br  Br6       1.0  0.7459527491066432  0.25404723542077884  0.745952777020751  1.0000
