data_image0
_chemical_formula_structural       Cr2SO6
_chemical_formula_sum              "Cr2 S1 O6"
_cell_length_a       5.024271180144361
_cell_length_b       5.024270723655828
_cell_length_c       5.024271555648769
_cell_angle_alpha    59.99999529317283
_cell_angle_beta     59.99999497254484
_cell_angle_gamma    59.99999763511595

_space_group_name_H-M_alt    "P 1"
_space_group_IT_number       1

loop_
  _space_group_symop_operation_xyz
  'x, y, z'

loop_
  _atom_site_type_symbol
  _atom_site_label
  _atom_site_symmetry_multiplicity
  _atom_site_fract_x
  _atom_site_fract_y
  _atom_site_fract_z
  _atom_site_occupancy
  Cr  Cr1       1.0  0.2500008587807426  0.24999997045086353  0.25000017357677196  1.0000
  Cr  Cr2       1.0  0.750000495972733  0.7499995335156532  0.7500002113020803  1.0000
  S   S1        1.0  0.9999999930376053  0.9999998829924617  2.689801469538037e-07  1.0000
  O   O1        1.0  0.23200281729844363  0.23200279075595162  0.7679969190439306  1.0000
  O   O2        1.0  0.7679970291728667  0.7679971081109596  0.23200295769485935  1.0000
  O   O3        1.0  0.7679966845357178  0.2320031705024569  0.23200280592102066  1.0000
  O   O4        1.0  0.23200232708701013  0.7679970403845399  0.767997099362457  1.0000
  O   O5        1.0  0.23200289438261262  0.7679970622142122  0.23200285419968755  1.0000
  O   O6        1.0  0.7679969691440782  0.23200326811801464  0.7679970192063054  1.0000
