data_image0
_chemical_formula_structural       Cr2SCl6
_chemical_formula_sum              "Cr2 S1 Cl6"
_cell_length_a       6.755161951582094
_cell_length_b       6.755162461628922
_cell_length_c       6.755162169443326
_cell_angle_alpha    60.00000125260091
_cell_angle_beta     59.999999185616566
_cell_angle_gamma    60.00000149127918

_space_group_name_H-M_alt    "P 1"
_space_group_IT_number       1

loop_
  _space_group_symop_operation_xyz
  'x, y, z'

loop_
  _atom_site_type_symbol
  _atom_site_label
  _atom_site_symmetry_multiplicity
  _atom_site_fract_x
  _atom_site_fract_y
  _atom_site_fract_z
  _atom_site_occupancy
  Cr  Cr1       1.0  0.24999988521649924  0.25000010548692664  0.24999997152192371  1.0000
  Cr  Cr2       1.0  0.7499999717835515  0.7499999629159966  0.749999900703451  1.0000
  S   S1        1.0  4.133571630832517e-08  0.9999999836825484  0.9999999860105184  1.0000
  Cl  Cl1       1.0  0.2506163660455497  0.25061631986237465  0.749383686876072  1.0000
  Cl  Cl2       1.0  0.7493836719748899  0.7493836977751427  0.2506163733615522  1.0000
  Cl  Cl3       1.0  0.749383690509788  0.25061628837932093  0.2506163836626897  1.0000
  Cl  Cl4       1.0  0.250616366263293  0.7493836422317884  0.7493837151528664  1.0000
  Cl  Cl5       1.0  0.25061634379796366  0.7493836237717543  0.2506163033190039  1.0000
  Cl  Cl6       1.0  0.7493836553219488  0.2506163721091617  0.7493836732602838  1.0000
