data_image0
_chemical_formula_structural       Cr2ScCl6
_chemical_formula_sum              "Cr2 Sc1 Cl6"
_cell_length_a       6.796312128225302
_cell_length_b       6.7963120915271995
_cell_length_c       6.796312206060402
_cell_angle_alpha    60.00000043367947
_cell_angle_beta     60.00000099454243
_cell_angle_gamma    60.0000009783762

_space_group_name_H-M_alt    "P 1"
_space_group_IT_number       1

loop_
  _space_group_symop_operation_xyz
  'x, y, z'

loop_
  _atom_site_type_symbol
  _atom_site_label
  _atom_site_symmetry_multiplicity
  _atom_site_fract_x
  _atom_site_fract_y
  _atom_site_fract_z
  _atom_site_occupancy
  Cr  Cr1       1.0  0.24999997580940225  0.24999997718575193  0.2500000657801005  1.0000
  Cr  Cr2       1.0  0.749999946408825  0.749999945973837  0.7500000894157574  1.0000
  Sc  Sc1       1.0  0.9999999856687974  6.847876300083082e-08  0.9999999052424549  1.0000
  Cl  Cl1       1.0  0.25427279188562957  0.2542728082018064  0.7457272021370277  1.0000
  Cl  Cl2       1.0  0.7457271981899513  0.7457271203640005  0.2542727943019902  1.0000
  Cl  Cl3       1.0  0.7457271149485011  0.2542728790116596  0.25427280422793386  1.0000
  Cl  Cl4       1.0  0.2542728013451623  0.7457272658028739  0.7457271518767908  1.0000
  Cl  Cl5       1.0  0.2542729366052271  0.745727170925734  0.25427281223520265  1.0000
  Cl  Cl6       1.0  0.7457272555495346  0.25427276304629326  0.7457271716870614  1.0000
