data_image0
_chemical_formula_structural       Cr2SeO6
_chemical_formula_sum              "Cr2 Se1 O6"
_cell_length_a       5.1203767920934515
_cell_length_b       5.120376730578423
_cell_length_c       5.120376130358797
_cell_angle_alpha    60.000000688386756
_cell_angle_beta     60.00000225450115
_cell_angle_gamma    60.0000018640512

_space_group_name_H-M_alt    "P 1"
_space_group_IT_number       1

loop_
  _space_group_symop_operation_xyz
  'x, y, z'

loop_
  _atom_site_type_symbol
  _atom_site_label
  _atom_site_symmetry_multiplicity
  _atom_site_fract_x
  _atom_site_fract_y
  _atom_site_fract_z
  _atom_site_occupancy
  Cr  Cr1       1.0  0.2500002316473799  0.2500006084949003  0.2499997721840281  1.0000
  Cr  Cr2       1.0  0.7499993762676634  0.7499994694594532  0.7500002809192802  1.0000
  Se  Se1       1.0  0.9999998476061551  1.8656846866502943e-07  9.008140041966939e-07  1.0000
  O   O1        1.0  0.2446582797408054  0.24465749005850754  0.7553418866633156  1.0000
  O   O2        1.0  0.755341900975819  0.7553423510973892  0.24465759221826958  1.0000
  O   O3        1.0  0.7553424309739504  0.24465784476486557  0.24465768680436528  1.0000
  O   O4        1.0  0.24465765267912506  0.7553421590404779  0.7553421401156666  1.0000
  O   O5        1.0  0.24465789044006975  0.755341585196457  0.24465768003073213  1.0000
  O   O6        1.0  0.7553423435079719  0.24465842100079296  0.7553420549220087  1.0000
