data_image0
_chemical_formula_structural       Cr2SeS6
_chemical_formula_sum              "Cr2 Se1 S6"
_cell_length_a       6.478957071211326
_cell_length_b       6.478956855294417
_cell_length_c       6.47895680863499
_cell_angle_alpha    60.00000097107447
_cell_angle_beta     59.99999983919037
_cell_angle_gamma    60.00000070188111

_space_group_name_H-M_alt    "P 1"
_space_group_IT_number       1

loop_
  _space_group_symop_operation_xyz
  'x, y, z'

loop_
  _atom_site_type_symbol
  _atom_site_label
  _atom_site_symmetry_multiplicity
  _atom_site_fract_x
  _atom_site_fract_y
  _atom_site_fract_z
  _atom_site_occupancy
  Cr  Cr1       1.0  0.2500000053852263  0.25000029782755123  0.2499998910353314  1.0000
  Cr  Cr2       1.0  0.7499997973587499  0.7499996250627206  0.7500003889321705  1.0000
  Se  Se1       1.0  0.9999999399971243  6.238130775721802e-08  1.5788826857555704e-08  1.0000
  S   S1        1.0  0.24790110877282914  0.24790114920862577  0.7520988836710872  1.0000
  S   S2        1.0  0.7520990439187601  0.7520987717913037  0.24790101853127264  1.0000
  S   S3        1.0  0.752098827776214  0.24790135438124036  0.24790089463930778  1.0000
  S   S4        1.0  0.24790120242308208  0.7520988218149488  0.7520989952321142  1.0000
  S   S5        1.0  0.2479012782202944  0.752098665428529  0.24790091745217446  1.0000
  S   S6        1.0  0.75209884586602  0.24790122910660242  0.7520989736987633  1.0000
