data_image0
_chemical_formula_structural       Cr2ScI6
_chemical_formula_sum              "Cr2 Sc1 I6"
_cell_length_a       7.9208139669532
_cell_length_b       7.920813947068009
_cell_length_c       7.920813875918642
_cell_angle_alpha    60.00000003937448
_cell_angle_beta     60.00000016614615
_cell_angle_gamma    59.99999963650985

_space_group_name_H-M_alt    "P 1"
_space_group_IT_number       1

loop_
  _space_group_symop_operation_xyz
  'x, y, z'

loop_
  _atom_site_type_symbol
  _atom_site_label
  _atom_site_symmetry_multiplicity
  _atom_site_fract_x
  _atom_site_fract_y
  _atom_site_fract_z
  _atom_site_occupancy
  Cr  Cr1       1.0  0.2499999693028622  0.2500000065391634  0.25000000513271664  1.0000
  Cr  Cr2       1.0  0.7500000067008032  0.7500000118863087  0.7500000405674375  1.0000
  Sc  Sc1       1.0  5.112679236602008e-08  0.9999999690752773  0.9999999065741945  1.0000
  I   I1        1.0  0.25355331296315964  0.25355329939710525  0.746446682068576  1.0000
  I   I2        1.0  0.746446683303265  0.7464466757337552  0.25355329687272016  1.0000
  I   I3        1.0  0.7464466629264525  0.2535533488799756  0.2535533094536908  1.0000
  I   I4        1.0  0.2535532699898072  0.7464467375798867  0.7464467288229575  1.0000
  I   I5        1.0  0.25355331884360643  0.7464466860494905  0.25355330264750725  1.0000
  I   I6        1.0  0.7464467284611798  0.25355326279535545  0.7464467333549241  1.0000
