data_image0
_chemical_formula_structural       Cr2SiO6
_chemical_formula_sum              "Cr2 Si1 O6"
_cell_length_a       2.7762017079638883
_cell_length_b       3.3702902590872084
_cell_length_c       3.6918055603396587
_cell_angle_alpha    30.95689428938216
_cell_angle_beta     78.66895317797582
_cell_angle_gamma    75.7565474668748

_space_group_name_H-M_alt    "P 1"
_space_group_IT_number       1

loop_
  _space_group_symop_operation_xyz
  'x, y, z'

loop_
  _atom_site_type_symbol
  _atom_site_label
  _atom_site_symmetry_multiplicity
  _atom_site_fract_x
  _atom_site_fract_y
  _atom_site_fract_z
  _atom_site_occupancy
  Cr  Cr1       1.0  0.5014424307401851  0.3056660758623062  0.17515632615717988  1.0000
  Cr  Cr2       1.0  0.5848876356653785  0.17459206534612703  0.300035776577841  1.0000
  Si  Si1       1.0  0.24619446711152324  0.09029905874787961  0.17684611550919582  1.0000
  O   O1        1.0  0.22596182206837875  0.10109803544564588  0.14843603129461092  1.0000
  O   O2        1.0  0.2750431972292204  0.8237010903222166  0.8756245658946147  1.0000
  O   O3        1.0  0.621629597913255  0.9793777465492716  0.628424436802454  1.0000
  O   O4        1.0  0.8368657610072612  0.24864764363551095  0.6764161858418503  1.0000
  O   O5        1.0  0.6151568999664335  0.8962958151768023  0.7089466773348724  1.0000
  O   O6        1.0  0.23014974623463036  0.08593668015530764  0.16751223811658733  1.0000
