data_image0
_chemical_formula_structural       Cr2ScF6
_chemical_formula_sum              "Cr2 Sc1 F6"
_cell_length_a       5.682009825926839
_cell_length_b       5.682009807139323
_cell_length_c       5.68200991013782
_cell_angle_alpha    60.000002743245076
_cell_angle_beta     60.00000629317422
_cell_angle_gamma    60.000001519458124

_space_group_name_H-M_alt    "P 1"
_space_group_IT_number       1

loop_
  _space_group_symop_operation_xyz
  'x, y, z'

loop_
  _atom_site_type_symbol
  _atom_site_label
  _atom_site_symmetry_multiplicity
  _atom_site_fract_x
  _atom_site_fract_y
  _atom_site_fract_z
  _atom_site_occupancy
  Cr  Cr1       1.0  0.24999982822016495  0.24999965718196052  0.2500004867321101  1.0000
  Cr  Cr2       1.0  0.7499996829178579  0.7499999070234241  0.7500001013556357  1.0000
  Sc  Sc1       1.0  1.551798696958072e-08  3.879860748952995e-08  0.9999999235633674  1.0000
  F   F1        1.0  0.24996756796466524  0.24996746909077108  0.7500323386634211  1.0000
  F   F2        1.0  0.7500325252780927  0.7500326167403396  0.24996757964311597  1.0000
  F   F3        1.0  0.7500326500879186  0.24996755391244824  0.24996733236820864  1.0000
  F   F4        1.0  0.24996746445943227  0.7500326935795283  0.7500323694998208  1.0000
  F   F5        1.0  0.24996766561686365  0.7500325667405132  0.24996727350810435  1.0000
  F   F6        1.0  0.7500325602932355  0.2499675600446817  0.7500324875901035  1.0000
