data_image0
_chemical_formula_structural       Cr2TiBr6
_chemical_formula_sum              "Cr2 Ti1 Br6"
_cell_length_a       7.136969827773961
_cell_length_b       7.136969828216011
_cell_length_c       7.13696982070363
_cell_angle_alpha    60.00000040071066
_cell_angle_beta     60.000000257059064
_cell_angle_gamma    59.99999893474898

_space_group_name_H-M_alt    "P 1"
_space_group_IT_number       1

loop_
  _space_group_symop_operation_xyz
  'x, y, z'

loop_
  _atom_site_type_symbol
  _atom_site_label
  _atom_site_symmetry_multiplicity
  _atom_site_fract_x
  _atom_site_fract_y
  _atom_site_fract_z
  _atom_site_occupancy
  Cr  Cr1       1.0  0.2500000391920673  0.2499999628148716  0.25000006031196487  1.0000
  Cr  Cr2       1.0  0.7500000376253484  0.7500000651985106  0.7499998579080199  1.0000
  Ti  Ti1       1.0  6.667943119625987e-09  0.9999999897036563  0.999999941564541  1.0000
  Br  Br1       1.0  0.24753390781704498  0.24753390959761168  0.7524660628739004  1.0000
  Br  Br2       1.0  0.7524660853595433  0.752466092674913  0.2475339408623337  1.0000
  Br  Br3       1.0  0.7524660456453737  0.247533902984981  0.24753395507198403  1.0000
  Br  Br4       1.0  0.2475339031773668  0.7524661061517737  0.7524661066413953  1.0000
  Br  Br5       1.0  0.24753390233090544  0.7524660615839168  0.24753395497588543  1.0000
  Br  Br6       1.0  0.7524660899147697  0.24753390465140612  0.7524661134825167  1.0000
