data_image0
_chemical_formula_structural       Cr2TiI6
_chemical_formula_sum              "Cr2 Ti1 I6"
_cell_length_a       7.849111044150363
_cell_length_b       7.849110912109542
_cell_length_c       7.84911102639636
_cell_angle_alpha    59.99999910199354
_cell_angle_beta     59.999999305218665
_cell_angle_gamma    60.00000007616052

_space_group_name_H-M_alt    "P 1"
_space_group_IT_number       1

loop_
  _space_group_symop_operation_xyz
  'x, y, z'

loop_
  _atom_site_type_symbol
  _atom_site_label
  _atom_site_symmetry_multiplicity
  _atom_site_fract_x
  _atom_site_fract_y
  _atom_site_fract_z
  _atom_site_occupancy
  Cr  Cr1       1.0  0.24999997889951947  0.249999991860712  0.25000001324574417  1.0000
  Cr  Cr2       1.0  0.7500000041764142  0.7500000114704461  0.7500000135347413  1.0000
  Ti  Ti1       1.0  0.9999999484214669  4.681083312159079e-09  3.109290292730215e-08  1.0000
  I   I1        1.0  0.24670708874639544  0.24670709027859805  0.7532929202016859  1.0000
  I   I2        1.0  0.75329293351442  0.7532929411390638  0.2467070691210178  1.0000
  I   I3        1.0  0.7532928935841376  0.24670712722348315  0.24670706251269062  1.0000
  I   I4        1.0  0.2467071480996108  0.7532928370986435  0.7532928805746848  1.0000
  I   I5        1.0  0.24670715032508597  0.7532928598614818  0.24670711631475725  1.0000
  I   I6        1.0  0.7532928549961654  0.24670713410750894  0.7532928912838569  1.0000
