data_image0
_chemical_formula_structural       Cr2VBr6
_chemical_formula_sum              "Cr2 V1 Br6"
_cell_length_a       7.066232674285424
_cell_length_b       7.066232654642015
_cell_length_c       7.066232546990032
_cell_angle_alpha    60.00000091820748
_cell_angle_beta     60.00000105733465
_cell_angle_gamma    60.00000026013558

_space_group_name_H-M_alt    "P 1"
_space_group_IT_number       1

loop_
  _space_group_symop_operation_xyz
  'x, y, z'

loop_
  _atom_site_type_symbol
  _atom_site_label
  _atom_site_symmetry_multiplicity
  _atom_site_fract_x
  _atom_site_fract_y
  _atom_site_fract_z
  _atom_site_occupancy
  Cr  Cr1       1.0  0.24999998666336795  0.25000002975931435  0.2500000014395944  1.0000
  Cr  Cr2       1.0  0.7499999376421981  0.7500000043493803  0.7500000098408537  1.0000
  V   V1        1.0  4.902331597640612e-08  0.9999999999999997  0.999999933032904  1.0000
  Br  Br1       1.0  0.2473817408194237  0.24738167326034632  0.75261829643839  1.0000
  Br  Br2       1.0  0.7526182259249131  0.7526182776530217  0.24738175078733002  1.0000
  Br  Br3       1.0  0.7526183003146677  0.24738172609250508  0.24738166987836505  1.0000
  Br  Br4       1.0  0.2473817106978824  0.7526183028164816  0.7526183544253339  1.0000
  Br  Br5       1.0  0.24738171663704886  0.7526182926586233  0.24738165419592822  1.0000
  Br  Br6       1.0  0.7526183333307925  0.2473816929194637  0.752618331255318  1.0000
