data_image0
_chemical_formula_structural       Cr2VF6
_chemical_formula_sum              "Cr2 V1 F6"
_cell_length_a       5.469462986040124
_cell_length_b       5.46946312256547
_cell_length_c       5.469463257930256
_cell_angle_alpha    59.99999989865691
_cell_angle_beta     59.9999998775235
_cell_angle_gamma    59.99999982989398

_space_group_name_H-M_alt    "P 1"
_space_group_IT_number       1

loop_
  _space_group_symop_operation_xyz
  'x, y, z'

loop_
  _atom_site_type_symbol
  _atom_site_label
  _atom_site_symmetry_multiplicity
  _atom_site_fract_x
  _atom_site_fract_y
  _atom_site_fract_z
  _atom_site_occupancy
  Cr  Cr1       1.0  0.2499997609800417  0.2500001777629329  0.24999993997526163  1.0000
  Cr  Cr2       1.0  0.7500000035213757  0.7500000182632537  0.7499998195345841  1.0000
  V   V1        1.0  5.576508467901699e-08  0.9999999910430337  0.9999999711109425  1.0000
  F   F1        1.0  0.2475459384408996  0.24754592327871827  0.7524541121029266  1.0000
  F   F2        1.0  0.7524540997928831  0.7524540152346971  0.24754598119538923  1.0000
  F   F3        1.0  0.7524541535419917  0.24754587048441287  0.24754601432655912  1.0000
  F   F4        1.0  0.24754595613156744  0.7524540120479651  0.7524541425473733  1.0000
  F   F5        1.0  0.24754590703378931  0.7524540601090499  0.24754597570652792  1.0000
  F   F6        1.0  0.7524541194915281  0.24754593886388537  0.752454069447932  1.0000
