data_image0
_chemical_formula_structural       Cr2VI6
_chemical_formula_sum              "Cr2 V1 I6"
_cell_length_a       7.656925730184752
_cell_length_b       7.6569258223965
_cell_length_c       7.656925823702402
_cell_angle_alpha    59.99999999628943
_cell_angle_beta     59.9999998149938
_cell_angle_gamma    59.99999961063981

_space_group_name_H-M_alt    "P 1"
_space_group_IT_number       1

loop_
  _space_group_symop_operation_xyz
  'x, y, z'

loop_
  _atom_site_type_symbol
  _atom_site_label
  _atom_site_symmetry_multiplicity
  _atom_site_fract_x
  _atom_site_fract_y
  _atom_site_fract_z
  _atom_site_occupancy
  Cr  Cr1       1.0  0.24999999991806432  0.2500000031451926  0.24999998819599065  1.0000
  Cr  Cr2       1.0  0.7500000098688266  0.7500000062365266  0.7500000212065105  1.0000
  V   V1        1.0  2.466193042591068e-08  0.9999999984004743  0.9999999793267476  1.0000
  I   I1        1.0  0.24763207728421965  0.24763205869018587  0.7523679241067086  1.0000
  I   I2        1.0  0.7523679385505553  0.7523679234995985  0.24763202534343084  1.0000
  I   I3        1.0  0.7523678863080391  0.24763208930303504  0.24763209213994447  1.0000
  I   I4        1.0  0.24763203732150932  0.7523679568677731  0.7523679589247765  1.0000
  I   I5        1.0  0.24763208914382856  0.7523679156867729  0.24763207147808838  1.0000
  I   I6        1.0  0.7523679354804899  0.24763205370680685  0.7523679374396972  1.0000
