data_image0
_chemical_formula_structural       Cr2VCl6
_chemical_formula_sum              "Cr2 V1 Cl6"
_cell_length_a       6.679474057061196
_cell_length_b       6.679473838218512
_cell_length_c       6.67947406003919
_cell_angle_alpha    59.999999360183125
_cell_angle_beta     59.9999999949708
_cell_angle_gamma    59.999999450380514

_space_group_name_H-M_alt    "P 1"
_space_group_IT_number       1

loop_
  _space_group_symop_operation_xyz
  'x, y, z'

loop_
  _atom_site_type_symbol
  _atom_site_label
  _atom_site_symmetry_multiplicity
  _atom_site_fract_x
  _atom_site_fract_y
  _atom_site_fract_z
  _atom_site_occupancy
  Cr  Cr1       1.0  0.24999986717312764  0.2500000834185222  0.25000005103743833  1.0000
  Cr  Cr2       1.0  0.7499999401468574  0.7499998982053562  0.7500001298812043  1.0000
  V   V1        1.0  2.7449945472196893e-08  1.1001569111715026e-08  0.9999999628087564  1.0000
  Cl  Cl1       1.0  0.24559805394105763  0.24559798046444237  0.7544019896493844  1.0000
  Cl  Cl2       1.0  0.7544020174042275  0.7544019351500219  0.24559799045689265  1.0000
  Cl  Cl3       1.0  0.7544019831450266  0.2455980029594756  0.24559804375309774  1.0000
  Cl  Cl4       1.0  0.2455980142123713  0.7544020153363001  0.7544019639259355  1.0000
  Cl  Cl5       1.0  0.24559806118967736  0.7544020402129425  0.2455979593852919  1.0000
  Cl  Cl6       1.0  0.7544020318230693  0.24559803859146334  0.7544019103267976  1.0000
