data_image0
_chemical_formula_structural       Cr2ZnCl6
_chemical_formula_sum              "Cr2 Zn1 Cl6"
_cell_length_a       6.538715784696293
_cell_length_b       6.538715748644618
_cell_length_c       6.5387157615419005
_cell_angle_alpha    60.000000156357146
_cell_angle_beta     59.99999997383147
_cell_angle_gamma    60.00000010426705

_space_group_name_H-M_alt    "P 1"
_space_group_IT_number       1

loop_
  _space_group_symop_operation_xyz
  'x, y, z'

loop_
  _atom_site_type_symbol
  _atom_site_label
  _atom_site_symmetry_multiplicity
  _atom_site_fract_x
  _atom_site_fract_y
  _atom_site_fract_z
  _atom_site_occupancy
  Cr  Cr1       1.0  0.24999998488429137  0.24999996530745272  0.25000013351816824  1.0000
  Cr  Cr2       1.0  0.749999888382453  0.7500000682444647  0.7499999804841101  1.0000
  Zn  Zn1       1.0  0.9999999814132173  0.9999999868885352  6.673009930069105e-09  1.0000
  Cl  Cl1       1.0  0.25423591599471235  0.25423582780959303  0.7457640270752233  1.0000
  Cl  Cl2       1.0  0.7457641500996666  0.745764157042598  0.2542358833388028  1.0000
  Cl  Cl3       1.0  0.7457642051176776  0.2542358914211698  0.25423583341689593  1.0000
  Cl  Cl4       1.0  0.2542358688423183  0.7457641440038141  0.745764127304245  1.0000
  Cl  Cl5       1.0  0.2542358821110613  0.7457641275183055  0.254235839993381  1.0000
  Cl  Cl6       1.0  0.745764128740202  0.2542358217456243  0.7457641663049596  1.0000
