data_image0
_chemical_formula_structural       Cr2ZnBr6
_chemical_formula_sum              "Cr2 Zn1 Br6"
_cell_length_a       6.997602577787121
_cell_length_b       6.997602668123895
_cell_length_c       6.99760254816111
_cell_angle_alpha    60.00000011045524
_cell_angle_beta     59.999999964209735
_cell_angle_gamma    60.00000035585926

_space_group_name_H-M_alt    "P 1"
_space_group_IT_number       1

loop_
  _space_group_symop_operation_xyz
  'x, y, z'

loop_
  _atom_site_type_symbol
  _atom_site_label
  _atom_site_symmetry_multiplicity
  _atom_site_fract_x
  _atom_site_fract_y
  _atom_site_fract_z
  _atom_site_occupancy
  Cr  Cr1       1.0  0.25000002751077616  0.25000009112652954  0.24999993032884318  1.0000
  Cr  Cr2       1.0  0.7499999999312542  0.7499999320837752  0.7500000686717747  1.0000
  Zn  Zn1       1.0  0.9999999994995121  2.6253523944719624e-08  1.5704699336627514e-08  1.0000
  Br  Br1       1.0  0.2537742554273071  0.25377429024462994  0.746225723355655  1.0000
  Br  Br2       1.0  0.7462257264114629  0.7462257014614461  0.2537742713268816  1.0000
  Br  Br3       1.0  0.7462257232211469  0.25377429362545834  0.25377423934649684  1.0000
  Br  Br4       1.0  0.2537742762858197  0.746225694580148  0.7462257411068718  1.0000
  Br  Br5       1.0  0.25377428641863664  0.7462256915514682  0.25377427917559525  1.0000
  Br  Br6       1.0  0.746225700670838  0.25377428440249333  0.7462257236157679  1.0000
