data_image0
_chemical_formula_structural       Cr2ZnI6
_chemical_formula_sum              "Cr2 Zn1 I6"
_cell_length_a       7.6053090778803565
_cell_length_b       7.605308995486106
_cell_length_c       7.605309037269343
_cell_angle_alpha    59.99999979739558
_cell_angle_beta     59.999999963838654
_cell_angle_gamma    60.000000828191574

_space_group_name_H-M_alt    "P 1"
_space_group_IT_number       1

loop_
  _space_group_symop_operation_xyz
  'x, y, z'

loop_
  _atom_site_type_symbol
  _atom_site_label
  _atom_site_symmetry_multiplicity
  _atom_site_fract_x
  _atom_site_fract_y
  _atom_site_fract_z
  _atom_site_occupancy
  Cr  Cr1       1.0  0.2499999987976325  0.24999998107953708  0.25000000716971116  1.0000
  Cr  Cr2       1.0  0.7500000032317132  0.7500000092642518  0.7499999587794861  1.0000
  Zn  Zn1       1.0  0.9999999944794666  0.9999999710131334  2.7901194534623515e-09  1.0000
  I   I1        1.0  0.2553278071618501  0.25532782386089486  0.7446721883413926  1.0000
  I   I2        1.0  0.744672258787943  0.7446722115735759  0.2553277717524653  1.0000
  I   I3        1.0  0.7446721935397163  0.25532776388004447  0.2553278524715964  1.0000
  I   I4        1.0  0.2553277834919235  0.7446722103599291  0.7446722234395868  1.0000
  I   I5        1.0  0.2553278005376327  0.744672198809515  0.25532779408646455  1.0000
  I   I6        1.0  0.7446721628899636  0.25532782535228415  0.7446721979222796  1.0000
