data_image0
_chemical_formula_structural       Cs2CBr6
_chemical_formula_sum              "Cs2 C1 Br6"
_cell_length_a       8.05046665644011
_cell_length_b       8.050467173858163
_cell_length_c       8.05046692929072
_cell_angle_alpha    60.00000169960573
_cell_angle_beta     60.00000119032358
_cell_angle_gamma    60.00000360047061

_space_group_name_H-M_alt    "P 1"
_space_group_IT_number       1

loop_
  _space_group_symop_operation_xyz
  'x, y, z'

loop_
  _atom_site_type_symbol
  _atom_site_label
  _atom_site_symmetry_multiplicity
  _atom_site_fract_x
  _atom_site_fract_y
  _atom_site_fract_z
  _atom_site_occupancy
  Cs  Cs1       1.0  0.24999991914036218  0.2500000506130245  0.2500000450692905  1.0000
  Cs  Cs2       1.0  0.7500000642404803  0.7499999327670023  0.7500001000293623  1.0000
  C   C1        1.0  0.9999999397010875  0.9999999528386495  0.9999997295253328  1.0000
  Br  Br1       1.0  0.20940473987164382  0.20940487252696055  0.7905951849824534  1.0000
  Br  Br2       1.0  0.7905952124636562  0.7905949587196796  0.20940484302211507  1.0000
  Br  Br3       1.0  0.7905951262398085  0.2094050316793063  0.20940484502760237  1.0000
  Br  Br4       1.0  0.2094047841020847  0.7905951966354714  0.7905951930063622  1.0000
  Br  Br5       1.0  0.20940494217229993  0.7905950647790071  0.20940498918191414  1.0000
  Br  Br6       1.0  0.7905952352479237  0.20940494750636637  0.7905950332649028  1.0000
