data_image0
_chemical_formula_structural       Cs2CrBr6
_chemical_formula_sum              "Cs2 Cr1 Br6"
_cell_length_a       7.778272197991053
_cell_length_b       7.778272318450852
_cell_length_c       7.778272441971286
_cell_angle_alpha    59.99999896734872
_cell_angle_beta     59.99999849566769
_cell_angle_gamma    60.0000030601806

_space_group_name_H-M_alt    "P 1"
_space_group_IT_number       1

loop_
  _space_group_symop_operation_xyz
  'x, y, z'

loop_
  _atom_site_type_symbol
  _atom_site_label
  _atom_site_symmetry_multiplicity
  _atom_site_fract_x
  _atom_site_fract_y
  _atom_site_fract_z
  _atom_site_occupancy
  Cs  Cs1       1.0  0.2500000546981107  0.24999996288848586  0.24999995967006683  1.0000
  Cs  Cs2       1.0  0.7499999951573898  0.7499999768414739  0.7500000723809334  1.0000
  Cr  Cr1       1.0  0.9999999336468282  0.99999997638142  0.9999999189938893  1.0000
  Br  Br1       1.0  0.22661872621296897  0.22661874258552028  0.7733812752497643  1.0000
  Br  Br2       1.0  0.7733813222299699  0.7733813750710592  0.22661855926544194  1.0000
  Br  Br3       1.0  0.7733811218138019  0.2266188130472197  0.22661885753193228  1.0000
  Br  Br4       1.0  0.22661882121536714  0.773381175494463  0.7733812498091432  1.0000
  Br  Br5       1.0  0.22661884784662686  0.7733812012933547  0.22661883236543395  1.0000
  Br  Br6       1.0  0.7733812134347828  0.22661876205518294  0.773381277300129  1.0000
