data_image0
_chemical_formula_structural       Cs2CoCl6
_chemical_formula_sum              "Cs2 Co1 Cl6"
_cell_length_a       7.39438059003676
_cell_length_b       7.394381154550881
_cell_length_c       7.394380053552641
_cell_angle_alpha    60.000000877522986
_cell_angle_beta     59.999998044058174
_cell_angle_gamma    59.99999911502911

_space_group_name_H-M_alt    "P 1"
_space_group_IT_number       1

loop_
  _space_group_symop_operation_xyz
  'x, y, z'

loop_
  _atom_site_type_symbol
  _atom_site_label
  _atom_site_symmetry_multiplicity
  _atom_site_fract_x
  _atom_site_fract_y
  _atom_site_fract_z
  _atom_site_occupancy
  Cs  Cs1       1.0  0.24999996033149866  0.25000003139537946  0.25000001709433695  1.0000
  Cs  Cs2       1.0  0.7500000217759895  0.7499999997759962  0.7499999496593852  1.0000
  Co  Co1       1.0  0.9999996039049486  1.623192010751734e-07  7.766895912531354e-08  1.0000
  Cl  Cl1       1.0  0.21574734232653903  0.2157476589869885  0.7842525067981689  1.0000
  Cl  Cl2       1.0  0.7842527548976299  0.7842523407143366  0.21574744112266836  1.0000
  Cl  Cl3       1.0  0.7842525908092037  0.2157475865313299  0.21574745229445605  1.0000
  Cl  Cl4       1.0  0.21574751204700499  0.784252363480447  0.7842525203598937  1.0000
  Cl  Cl5       1.0  0.2157475787292103  0.7842523835232019  0.2157475868571872  1.0000
  Cl  Cl6       1.0  0.7842526139740272  0.21574754992538867  0.7842523924313483  1.0000
