data_image0
_chemical_formula_structural       Cs2CI6
_chemical_formula_sum              "Cs2 C1 I6"
_cell_length_a       8.567205488233622
_cell_length_b       8.567206252603574
_cell_length_c       8.567207763599692
_cell_angle_alpha    59.99999168133833
_cell_angle_beta     59.999994819864796
_cell_angle_gamma    60.00001583474925

_space_group_name_H-M_alt    "P 1"
_space_group_IT_number       1

loop_
  _space_group_symop_operation_xyz
  'x, y, z'

loop_
  _atom_site_type_symbol
  _atom_site_label
  _atom_site_symmetry_multiplicity
  _atom_site_fract_x
  _atom_site_fract_y
  _atom_site_fract_z
  _atom_site_occupancy
  Cs  Cs1       1.0  0.2500000019327293  0.2500000058128812  0.2500000202129179  1.0000
  Cs  Cs2       1.0  0.7499999924298378  0.7499999645444345  0.7500000038924423  1.0000
  C   C1        1.0  0.9999999608736801  0.9999999313804779  9.51774610753055e-09  1.0000
  I   I1        1.0  0.22122980458724698  0.22123008314863804  0.7787700867673728  1.0000
  I   I2        1.0  0.7787701947834608  0.7787700015745382  0.22122986247684615  1.0000
  I   I3        1.0  0.7787697744913611  0.221229731243562  0.22123036746029512  1.0000
  I   I4        1.0  0.22123027145488633  0.7787702905784014  0.7787696097898674  1.0000
  I   I5        1.0  0.22123014249579687  0.7787703296022002  0.2212298411096328  1.0000
  I   I6        1.0  0.7787698623759715  0.22122970222676677  0.7787701528415076  1.0000
