data_image0
_chemical_formula_structural       Cs2CCl6
_chemical_formula_sum              "Cs2 C1 Cl6"
_cell_length_a       7.76198754631818
_cell_length_b       7.761987214584902
_cell_length_c       7.761988668030209
_cell_angle_alpha    59.99999960937234
_cell_angle_beta     60.000002538661086
_cell_angle_gamma    59.99999831936922

_space_group_name_H-M_alt    "P 1"
_space_group_IT_number       1

loop_
  _space_group_symop_operation_xyz
  'x, y, z'

loop_
  _atom_site_type_symbol
  _atom_site_label
  _atom_site_symmetry_multiplicity
  _atom_site_fract_x
  _atom_site_fract_y
  _atom_site_fract_z
  _atom_site_occupancy
  Cs  Cs1       1.0  0.24999970801696947  0.2500002558557745  0.24999995344536616  1.0000
  Cs  Cs2       1.0  0.7499999454630822  0.7500000527897503  0.7500000298998385  1.0000
  C   C1        1.0  1.1755466959180676e-06  0.9999991511029779  0.9999992131236493  1.0000
  Cl  Cl1       1.0  0.19749435920695624  0.19749432788777854  0.8025059481304743  1.0000
  Cl  Cl2       1.0  0.8025053412590971  0.8025052328448206  0.19749516125260028  1.0000
  Cl  Cl3       1.0  0.8025052532311078  0.197494816187101  0.197495195358679  1.0000
  Cl  Cl4       1.0  0.19749461924850822  0.8025053977859146  0.8025052411548588  1.0000
  Cl  Cl5       1.0  0.19749418029021612  0.8025057060682826  0.19749424027699733  1.0000
  Cl  Cl6       1.0  0.8025055287967219  0.19749498915670072  0.8025049615516653  1.0000
