data_image0
_chemical_formula_structural       Cs2CrI6
_chemical_formula_sum              "Cs2 Cr1 I6"
_cell_length_a       8.391131409001318
_cell_length_b       8.391130634676317
_cell_length_c       8.391133267448803
_cell_angle_alpha    59.99999561052354
_cell_angle_beta     59.999988071270074
_cell_angle_gamma    60.000019549334404

_space_group_name_H-M_alt    "P 1"
_space_group_IT_number       1

loop_
  _space_group_symop_operation_xyz
  'x, y, z'

loop_
  _atom_site_type_symbol
  _atom_site_label
  _atom_site_symmetry_multiplicity
  _atom_site_fract_x
  _atom_site_fract_y
  _atom_site_fract_z
  _atom_site_occupancy
  Cs  Cs1       1.0  0.25000002670003457  0.2499999430850771  0.2500000399274745  1.0000
  Cs  Cs2       1.0  0.7499999946246675  0.7500001021949155  0.7499999628884054  1.0000
  Cr  Cr1       1.0  1.8349304170870943e-07  2.335316812063889e-08  0.9999997202002369  1.0000
  I   I1        1.0  0.22889228415534932  0.22889236349968578  0.7711076741092331  1.0000
  I   I2        1.0  0.7711074994647898  0.771107759137475  0.2288923040077514  1.0000
  I   I3        1.0  0.7711077730815065  0.22889218328488406  0.22889219012630704  1.0000
  I   I4        1.0  0.22889216560825415  0.7711078415610954  0.7711078618405839  1.0000
  I   I5        1.0  0.22889231738488666  0.771107663954483  0.22889230446426478  1.0000
  I   I6        1.0  0.7711077720816725  0.2288921273602474  0.771107953339147  1.0000
