data_image0
_chemical_formula_structural       Cs2CrCl6
_chemical_formula_sum              "Cs2 Cr1 Cl6"
_cell_length_a       7.497433508183019
_cell_length_b       7.4974336838113524
_cell_length_c       7.497433845805392
_cell_angle_alpha    60.00000051129545
_cell_angle_beta     59.99999596517323
_cell_angle_gamma    60.00000042157441

_space_group_name_H-M_alt    "P 1"
_space_group_IT_number       1

loop_
  _space_group_symop_operation_xyz
  'x, y, z'

loop_
  _atom_site_type_symbol
  _atom_site_label
  _atom_site_symmetry_multiplicity
  _atom_site_fract_x
  _atom_site_fract_y
  _atom_site_fract_z
  _atom_site_occupancy
  Cs  Cs1       1.0  0.24999993619960623  0.25000006434954103  0.2500000115175786  1.0000
  Cs  Cs2       1.0  0.7499999541209718  0.7499999921217156  0.7500000662564774  1.0000
  Cr  Cr1       1.0  0.9999999873052748  1.9602629094789092e-08  1.6593733969919248e-07  1.0000
  Cl  Cl1       1.0  0.22057821931725788  0.22057818382181335  0.7794217527758202  1.0000
  Cl  Cl2       1.0  0.7794218558988029  0.7794217337975128  0.2205781619285372  1.0000
  Cl  Cl3       1.0  0.7794220252415687  0.22057806902616336  0.22057798983560975  1.0000
  Cl  Cl4       1.0  0.22057799740726097  0.779421886164867  0.7794222004582408  1.0000
  Cl  Cl5       1.0  0.22057807313736788  0.7794218174821628  0.22057807557638312  1.0000
  Cl  Cl6       1.0  0.7794219265162672  0.22057826675947267  0.7794216082012678  1.0000
