data_image0
_chemical_formula_structural       Cs2CoBr6
_chemical_formula_sum              "Cs2 Co1 Br6"
_cell_length_a       7.81946857469954
_cell_length_b       7.819468189191719
_cell_length_c       7.819467722866919
_cell_angle_alpha    59.9999997306417
_cell_angle_beta     59.99999966023858
_cell_angle_gamma    59.99999623440729

_space_group_name_H-M_alt    "P 1"
_space_group_IT_number       1

loop_
  _space_group_symop_operation_xyz
  'x, y, z'

loop_
  _atom_site_type_symbol
  _atom_site_label
  _atom_site_symmetry_multiplicity
  _atom_site_fract_x
  _atom_site_fract_y
  _atom_site_fract_z
  _atom_site_occupancy
  Cs  Cs1       1.0  0.24999992319718692  0.2500001342126795  0.2499999658193302  1.0000
  Cs  Cs2       1.0  0.750000019996002  0.7499999969724273  0.7500000390315466  1.0000
  Co  Co1       1.0  6.649758651746673e-08  0.9999999201198976  8.981711996227748e-08  1.0000
  Br  Br1       1.0  0.2262932563372465  0.22629301619588982  0.7737068796443469  1.0000
  Br  Br2       1.0  0.7737068211052033  0.7737068894454036  0.2262930941222403  1.0000
  Br  Br3       1.0  0.7737069293471085  0.2262931491838151  0.2262930974280143  1.0000
  Br  Br4       1.0  0.2262930404881548  0.7737068754944921  0.7737068987585677  1.0000
  Br  Br5       1.0  0.22629308083137809  0.773706864022115  0.2262932147862341  1.0000
  Br  Br6       1.0  0.7737068878854972  0.22629314186087596  0.773706699279322  1.0000
