data_image0
_chemical_formula_structural       Cs2CF6
_chemical_formula_sum              "Cs2 C1 F6"
_cell_length_a       6.146917125654527
_cell_length_b       6.146916853470424
_cell_length_c       6.146917236939421
_cell_angle_alpha    59.99999310592505
_cell_angle_beta     59.9999989985962
_cell_angle_gamma    59.9999975332471

_space_group_name_H-M_alt    "P 1"
_space_group_IT_number       1

loop_
  _space_group_symop_operation_xyz
  'x, y, z'

loop_
  _atom_site_type_symbol
  _atom_site_label
  _atom_site_symmetry_multiplicity
  _atom_site_fract_x
  _atom_site_fract_y
  _atom_site_fract_z
  _atom_site_occupancy
  Cs  Cs1       1.0  0.249999905048653  0.25000002771930435  0.25000003373895696  1.0000
  Cs  Cs2       1.0  0.7500001093093933  0.7500000672183034  0.7499996387972274  1.0000
  C   C1        1.0  0.9999998135757049  0.9999998266565031  0.9999999342323117  1.0000
  F   F1        1.0  0.1858396318060499  0.18583954497998975  0.8141604763358942  1.0000
  F   F2        1.0  0.814160690512628  0.8141605559349648  0.18583945407339095  1.0000
  F   F3        1.0  0.8141601934300445  0.1858397404666911  0.18583978663396028  1.0000
  F   F4        1.0  0.1858393901775953  0.814160581610642  0.8141605928889611  1.0000
  F   F5        1.0  0.18583959480091428  0.8141603022458477  0.18583974010843168  1.0000
  F   F6        1.0  0.8141605872064676  0.18583937427638295  0.8141604580113936  1.0000
