data_image0
_chemical_formula_structural       Cs2FeF6
_chemical_formula_sum              "Cs2 Fe1 F6"
_cell_length_a       6.670812166709754
_cell_length_b       6.670811665128788
_cell_length_c       6.670811924417509
_cell_angle_alpha    59.999998969823395
_cell_angle_beta     60.00000226947938
_cell_angle_gamma    60.000001773320676

_space_group_name_H-M_alt    "P 1"
_space_group_IT_number       1

loop_
  _space_group_symop_operation_xyz
  'x, y, z'

loop_
  _atom_site_type_symbol
  _atom_site_label
  _atom_site_symmetry_multiplicity
  _atom_site_fract_x
  _atom_site_fract_y
  _atom_site_fract_z
  _atom_site_occupancy
  Cs  Cs1       1.0  0.24999992148862374  0.2499998683240103  0.2500001057642542  1.0000
  Cs  Cs2       1.0  0.7500002029031957  0.7499999721672092  0.749999763070658  1.0000
  Fe  Fe1       1.0  1.678473750514287e-08  2.7539637793294584e-08  0.9999999613480657  1.0000
  F   F1        1.0  0.20618493241549532  0.2061847587659814  0.7938151378206976  1.0000
  F   F2        1.0  0.7938150816108782  0.7938152414551294  0.20618484124810185  1.0000
  F   F3        1.0  0.793815075368065  0.20618467362287085  0.20618503054647627  1.0000
  F   F4        1.0  0.2061847666618378  0.7938153596457983  0.7938150764604259  1.0000
  F   F5        1.0  0.20618489873400683  0.7938152923834408  0.20618483435772775  1.0000
  F   F6        1.0  0.7938151164803201  0.20618476658889592  0.7938151657097906  1.0000
