data_image0
_chemical_formula_structural       Cs2FeCl6
_chemical_formula_sum              "Cs2 Fe1 Cl6"
_cell_length_a       7.443876143505265
_cell_length_b       7.443875609864734
_cell_length_c       7.443875173574031
_cell_angle_alpha    59.99999901865723
_cell_angle_beta     59.99999911234582
_cell_angle_gamma    59.99999666576353

_space_group_name_H-M_alt    "P 1"
_space_group_IT_number       1

loop_
  _space_group_symop_operation_xyz
  'x, y, z'

loop_
  _atom_site_type_symbol
  _atom_site_label
  _atom_site_symmetry_multiplicity
  _atom_site_fract_x
  _atom_site_fract_y
  _atom_site_fract_z
  _atom_site_occupancy
  Cs  Cs1       1.0  0.25000001309690184  0.2499999645428353  0.2500000513524951  1.0000
  Cs  Cs2       1.0  0.7500000295586337  0.7499999972827501  0.7500000103725827  1.0000
  Fe  Fe1       1.0  6.994498144471579e-07  2.517317184279896e-07  0.9999996372536506  1.0000
  Cl  Cl1       1.0  0.21812413512060516  0.21812410367792237  0.7818757176222846  1.0000
  Cl  Cl2       1.0  0.7818757674907338  0.7818756640016246  0.21812443596828693  1.0000
  Cl  Cl3       1.0  0.7818756291543354  0.21812423273808393  0.2181244304761713  1.0000
  Cl  Cl4       1.0  0.2181240930891918  0.7818758014809472  0.781875670624861  1.0000
  Cl  Cl5       1.0  0.21812396900992065  0.781875759711081  0.21812437377110705  1.0000
  Cl  Cl6       1.0  0.7818756988795024  0.2181242235034842  0.7818756456705827  1.0000
