data_image0
_chemical_formula_structural       Cs2GeI6
_chemical_formula_sum              "Cs2 Ge1 I6"
_cell_length_a       8.438160966680288
_cell_length_b       8.438161053964288
_cell_length_c       8.43816077031464
_cell_angle_alpha    60.000002716452514
_cell_angle_beta     59.99999775259568
_cell_angle_gamma    60.0000068162926

_space_group_name_H-M_alt    "P 1"
_space_group_IT_number       1

loop_
  _space_group_symop_operation_xyz
  'x, y, z'

loop_
  _atom_site_type_symbol
  _atom_site_label
  _atom_site_symmetry_multiplicity
  _atom_site_fract_x
  _atom_site_fract_y
  _atom_site_fract_z
  _atom_site_occupancy
  Cs  Cs1       1.0  0.24999994425357233  0.2500000135008713  0.24999998584491426  1.0000
  Cs  Cs2       1.0  0.7500000432233587  0.7499999592222346  0.750000067152185  1.0000
  Ge  Ge1       1.0  1.437195496690027e-09  2.0320099572081312e-08  0.9999999879362603  1.0000
  I   I1        1.0  0.2441613791687173  0.24416011840669227  0.7558392426426869  1.0000
  I   I2        1.0  0.7558386234984478  0.755839894956612  0.24416073148022452  1.0000
  I   I3        1.0  0.7558393612002305  0.24416010593893164  0.2441611766658446  1.0000
  I   I4        1.0  0.24416066452388327  0.7558398464640759  0.7558388258894785  1.0000
  I   I5        1.0  0.24416066508245887  0.7558399735642289  0.2441605933779837  1.0000
  I   I6        1.0  0.7558393164772439  0.24416007027922354  0.7558393807989547  1.0000
