data_image0
_chemical_formula_structural       Cs2GeCl6
_chemical_formula_sum              "Cs2 Ge1 Cl6"
_cell_length_a       7.537795118838605
_cell_length_b       7.537794817160777
_cell_length_c       7.5377950291407725
_cell_angle_alpha    60.000000977233945
_cell_angle_beta     60.00000099731276
_cell_angle_gamma    59.99999920178308

_space_group_name_H-M_alt    "P 1"
_space_group_IT_number       1

loop_
  _space_group_symop_operation_xyz
  'x, y, z'

loop_
  _atom_site_type_symbol
  _atom_site_label
  _atom_site_symmetry_multiplicity
  _atom_site_fract_x
  _atom_site_fract_y
  _atom_site_fract_z
  _atom_site_occupancy
  Cs  Cs1       1.0  0.2500000205849582  0.24999997707772426  0.2500000119401363  1.0000
  Cs  Cs2       1.0  0.7500000006946308  0.7500000270966816  0.7499999030004095  1.0000
  Ge  Ge1       1.0  0.9999999784607414  4.874415777339888e-09  0.9999999977192381  1.0000
  Cl  Cl1       1.0  0.21880785851750673  0.21880784323286004  0.781192057872751  1.0000
  Cl  Cl2       1.0  0.7811921190330952  0.7811922048112897  0.21880793128969953  1.0000
  Cl  Cl3       1.0  0.7811920933771972  0.21880778725576663  0.2188078648433551  1.0000
  Cl  Cl4       1.0  0.21880783968781842  0.7811922104194211  0.7811922035859182  1.0000
  Cl  Cl5       1.0  0.21880784814171592  0.7811921150514104  0.21880787023096354  1.0000
  Cl  Cl6       1.0  0.781192217299594  0.21880787612455618  0.781192190978986  1.0000
