data_image0
_chemical_formula_structural       Cs2HfBr6
_chemical_formula_sum              "Cs2 Hf1 Br6"
_cell_length_a       7.927080306338158
_cell_length_b       7.927080595811856
_cell_length_c       7.927080782731772
_cell_angle_alpha    59.99999860693301
_cell_angle_beta     59.99999920820787
_cell_angle_gamma    60.000005046872246

_space_group_name_H-M_alt    "P 1"
_space_group_IT_number       1

loop_
  _space_group_symop_operation_xyz
  'x, y, z'

loop_
  _atom_site_type_symbol
  _atom_site_label
  _atom_site_symmetry_multiplicity
  _atom_site_fract_x
  _atom_site_fract_y
  _atom_site_fract_z
  _atom_site_occupancy
  Cs  Cs1       1.0  0.2499999438781804  0.25000000511291326  0.25000000120396654  1.0000
  Cs  Cs2       1.0  0.7500000317413246  0.7499999612632688  0.750000063053581  1.0000
  Hf  Hf1       1.0  0.9999999563155695  0.9999999737347629  8.543477092550651e-08  1.0000
  Br  Br1       1.0  0.23488438481089516  0.23488441197662732  0.7651155846358201  1.0000
  Br  Br2       1.0  0.7651157867624473  0.7651157181710256  0.23488424173014655  1.0000
  Br  Br3       1.0  0.7651154953894628  0.2348845131384391  0.23488449557538593  1.0000
  Br  Br4       1.0  0.2348845134982955  0.7651154146124017  0.7651155057627878  1.0000
  Br  Br5       1.0  0.23488443898512712  0.7651154747695279  0.23488453697344414  1.0000
  Br  Br6       1.0  0.7651154486166736  0.23488452405193883  0.7651154718114158  1.0000
