data_image0
_chemical_formula_structural       Cs2HfCl6
_chemical_formula_sum              "Cs2 Hf1 Cl6"
_cell_length_a       7.609684622876883
_cell_length_b       7.609684364904904
_cell_length_c       7.609684399926917
_cell_angle_alpha    59.999999494328215
_cell_angle_beta     60.00000020857482
_cell_angle_gamma    60.0000005044879

_space_group_name_H-M_alt    "P 1"
_space_group_IT_number       1

loop_
  _space_group_symop_operation_xyz
  'x, y, z'

loop_
  _atom_site_type_symbol
  _atom_site_label
  _atom_site_symmetry_multiplicity
  _atom_site_fract_x
  _atom_site_fract_y
  _atom_site_fract_z
  _atom_site_occupancy
  Cs  Cs1       1.0  0.24999999794132824  0.2500000420019899  0.24999993981899074  1.0000
  Cs  Cs2       1.0  0.7500000021027324  0.7500000101251696  0.7499999402778609  1.0000
  Hf  Hf1       1.0  0.9999999012001041  0.9999999822959875  0.9999999636356788  1.0000
  Cl  Cl1       1.0  0.22906422014266245  0.22906419336675274  0.7709357808134224  1.0000
  Cl  Cl2       1.0  0.770935864431873  0.7709358555414967  0.2290641230192788  1.0000
  Cl  Cl3       1.0  0.7709357182615529  0.2290642385739122  0.22906427313978275  1.0000
  Cl  Cl4       1.0  0.2290642003184348  0.7709357620506679  0.7709358744999822  1.0000
  Cl  Cl5       1.0  0.22906427675022187  0.770935754617027  0.22906420863080856  1.0000
  Cl  Cl6       1.0  0.7709358386038523  0.22906416553477832  0.7709358624606903  1.0000
