data_image0
_chemical_formula_structural       Cs2HfI6
_chemical_formula_sum              "Cs2 Hf1 I6"
_cell_length_a       8.558190060199486
_cell_length_b       8.55818996742182
_cell_length_c       8.558190797079241
_cell_angle_alpha    59.99999288125346
_cell_angle_beta     59.999995932589
_cell_angle_gamma    60.00000077948076

_space_group_name_H-M_alt    "P 1"
_space_group_IT_number       1

loop_
  _space_group_symop_operation_xyz
  'x, y, z'

loop_
  _atom_site_type_symbol
  _atom_site_label
  _atom_site_symmetry_multiplicity
  _atom_site_fract_x
  _atom_site_fract_y
  _atom_site_fract_z
  _atom_site_occupancy
  Cs  Cs1       1.0  0.2500000194398784  0.25000021499381114  0.24999979380324147  1.0000
  Cs  Cs2       1.0  0.749999906878366  0.7499998364215472  0.7500001850768669  1.0000
  Hf  Hf1       1.0  4.58342537727171e-08  0.9999999313081854  1.56319218469032e-07  1.0000
  I   I1        1.0  0.2367044011043569  0.23670444057463907  0.763295615893237  1.0000
  I   I2        1.0  0.7632956362346636  0.7632954963543722  0.23670439626838358  1.0000
  I   I3        1.0  0.7632954921448181  0.2367045564721735  0.23670454554905415  1.0000
  I   I4        1.0  0.2367046092068175  0.763295443424336  0.7632953855954383  1.0000
  I   I5        1.0  0.23670437535086256  0.7632954843857637  0.23670461291437633  1.0000
  I   I6        1.0  0.763295521024647  0.23670460423765965  0.7632953085833882  1.0000
