data_image0
_chemical_formula_structural       Cs2IrBr6
_chemical_formula_sum              "Cs2 Ir1 Br6"
_cell_length_a       7.816715872798622
_cell_length_b       7.816716121863867
_cell_length_c       7.816715897080674
_cell_angle_alpha    60.0000001663483
_cell_angle_beta     60.00000249458945
_cell_angle_gamma    60.000000096831485

_space_group_name_H-M_alt    "P 1"
_space_group_IT_number       1

loop_
  _space_group_symop_operation_xyz
  'x, y, z'

loop_
  _atom_site_type_symbol
  _atom_site_label
  _atom_site_symmetry_multiplicity
  _atom_site_fract_x
  _atom_site_fract_y
  _atom_site_fract_z
  _atom_site_occupancy
  Cs  Cs1       1.0  0.2500000463180243  0.25000002472990446  0.25000004740433174  1.0000
  Cs  Cs2       1.0  0.7499999760887464  0.7499999645117706  0.7499999126020704  1.0000
  Ir  Ir1       1.0  0.9999999998642733  8.460870220396526e-08  1.253530745730593e-07  1.0000
  Br  Br1       1.0  0.22725444848487023  0.22725441293179294  0.7727454167021706  1.0000
  Br  Br2       1.0  0.7727455662823502  0.7727455637752604  0.227254494543074  1.0000
  Br  Br3       1.0  0.7727454991970899  0.22725437311938546  0.2272544431590412  1.0000
  Br  Br4       1.0  0.2272545937296727  0.7727455330804115  0.7727455128738286  1.0000
  Br  Br5       1.0  0.22725426875778876  0.7727455965601953  0.22725438665958414  1.0000
  Br  Br6       1.0  0.7727456158937607  0.22725443811948923  0.7727456438123039  1.0000
