data_image0
_chemical_formula_structural       Cs2IrF6
_chemical_formula_sum              "Cs2 Ir1 F6"
_cell_length_a       6.547501467410142
_cell_length_b       6.547501532512927
_cell_length_c       6.54750166379517
_cell_angle_alpha    59.99999907327769
_cell_angle_beta     59.999999878806655
_cell_angle_gamma    59.99999781507357

_space_group_name_H-M_alt    "P 1"
_space_group_IT_number       1

loop_
  _space_group_symop_operation_xyz
  'x, y, z'

loop_
  _atom_site_type_symbol
  _atom_site_label
  _atom_site_symmetry_multiplicity
  _atom_site_fract_x
  _atom_site_fract_y
  _atom_site_fract_z
  _atom_site_occupancy
  Cs  Cs1       1.0  0.250000001044337  0.24999993505813692  0.25000004960713007  1.0000
  Cs  Cs2       1.0  0.7499998997911157  0.7500000146763529  0.750000245416776  1.0000
  Ir  Ir1       1.0  0.9999999739375899  4.115216746515023e-08  0.9999999955097213  1.0000
  F   F1        1.0  0.2130853110838285  0.21308525490099814  0.7869146838057367  1.0000
  F   F2        1.0  0.7869147907623826  0.7869147584322932  0.21308511541596475  1.0000
  F   F3        1.0  0.786914704325817  0.21308522211822692  0.21308531279322007  1.0000
  F   F4        1.0  0.21308521982730494  0.7869147687684305  0.7869147881019564  1.0000
  F   F5        1.0  0.21308526439451958  0.7869148210051966  0.21308510621160745  1.0000
  F   F6        1.0  0.7869148160931972  0.2130851717520117  0.786914718559283  1.0000
