data_image0
_chemical_formula_structural       Cs2IrCl6
_chemical_formula_sum              "Cs2 Ir1 Cl6"
_cell_length_a       7.505427798665909
_cell_length_b       7.5054281502699745
_cell_length_c       7.505428069867744
_cell_angle_alpha    59.99999883490919
_cell_angle_beta     59.99999814610201
_cell_angle_gamma    59.99999729230305

_space_group_name_H-M_alt    "P 1"
_space_group_IT_number       1

loop_
  _space_group_symop_operation_xyz
  'x, y, z'

loop_
  _atom_site_type_symbol
  _atom_site_label
  _atom_site_symmetry_multiplicity
  _atom_site_fract_x
  _atom_site_fract_y
  _atom_site_fract_z
  _atom_site_occupancy
  Cs  Cs1       1.0  0.2500000136562971  0.2500000174211496  0.2499999810211192  1.0000
  Cs  Cs2       1.0  0.7500000426327282  0.7499999918863997  0.7499999337812623  1.0000
  Ir  Ir1       1.0  3.937942083831753e-08  0.9999999787864399  5.620315271566246e-08  1.0000
  Cl  Cl1       1.0  0.22157945972017642  0.22157947776909542  0.7784205103048548  1.0000
  Cl  Cl2       1.0  0.7784205226441436  0.7784205086930851  0.22157949152126652  1.0000
  Cl  Cl3       1.0  0.7784205111882898  0.2215794606208645  0.22157950981615554  1.0000
  Cl  Cl4       1.0  0.22157946746179294  0.7784205323685647  0.7784205052595196  1.0000
  Cl  Cl5       1.0  0.2215794250643344  0.7784205552606587  0.22157949527358387  1.0000
  Cl  Cl6       1.0  0.7784205140969902  0.22157949157857235  0.7784205432660569  1.0000
