data_image0
_chemical_formula_structural       Cs2IrI6
_chemical_formula_sum              "Cs2 Ir1 I6"
_cell_length_a       8.430641552085165
_cell_length_b       8.430641641923655
_cell_length_c       8.43064351416181
_cell_angle_alpha    59.999994809393314
_cell_angle_beta     59.99999644420893
_cell_angle_gamma    60.000011308409356

_space_group_name_H-M_alt    "P 1"
_space_group_IT_number       1

loop_
  _space_group_symop_operation_xyz
  'x, y, z'

loop_
  _atom_site_type_symbol
  _atom_site_label
  _atom_site_symmetry_multiplicity
  _atom_site_fract_x
  _atom_site_fract_y
  _atom_site_fract_z
  _atom_site_occupancy
  Cs  Cs1       1.0  0.24999994635451894  0.25000007391675877  0.24999999380778215  1.0000
  Cs  Cs2       1.0  0.7499999954146844  0.7499999951243722  0.7499999928377548  1.0000
  Ir  Ir1       1.0  1.6536891781268157e-07  0.9999999230053216  1.2780449999837567e-07  1.0000
  I   I1        1.0  0.22624331885141838  0.22624313104981675  0.7737566761993904  1.0000
  I   I2        1.0  0.7737566673565756  0.7737568580911541  0.226243324618384  1.0000
  I   I3        1.0  0.7737566502444501  0.2262432727308158  0.22624332765529276  1.0000
  I   I4        1.0  0.22624346256691702  0.773756661206423  0.773756565107571  1.0000
  I   I5        1.0  0.22624299192343078  0.7737570471829334  0.22624330762636546  1.0000
  I   I6        1.0  0.773756808840933  0.2262430421963987  0.7737566764865856  1.0000
