data_image0
_chemical_formula_structural       Cs2MoI6
_chemical_formula_sum              "Cs2 Mo1 I6"
_cell_length_a       8.367047866982164
_cell_length_b       8.367048849291232
_cell_length_c       8.36705015250304
_cell_angle_alpha    59.99998700480878
_cell_angle_beta     60.000000333536164
_cell_angle_gamma    60.00001342478902

_space_group_name_H-M_alt    "P 1"
_space_group_IT_number       1

loop_
  _space_group_symop_operation_xyz
  'x, y, z'

loop_
  _atom_site_type_symbol
  _atom_site_label
  _atom_site_symmetry_multiplicity
  _atom_site_fract_x
  _atom_site_fract_y
  _atom_site_fract_z
  _atom_site_occupancy
  Cs  Cs1       1.0  0.24999989966361644  0.2500000906830764  0.24999999262194694  1.0000
  Cs  Cs2       1.0  0.7500000440530977  0.749999907570136  0.750000021038911  1.0000
  Mo  Mo1       1.0  2.460711785225612e-07  0.9999998331300783  0.9999999221541399  1.0000
  I   I1        1.0  0.23704631014571367  0.23704627117245947  0.7629536783121453  1.0000
  I   I2        1.0  0.762953679179817  0.7629538924869581  0.237046301551056  1.0000
  I   I3        1.0  0.7629535428231583  0.23704611650839802  0.23704675928334956  1.0000
  I   I4        1.0  0.2370464080187143  0.7629537734256968  0.7629533970021491  1.0000
  I   I5        1.0  0.23704622604469913  0.7629537729332597  0.23704650551174736  1.0000
  I   I6        1.0  0.762953648834136  0.2370463614507192  0.7629533932314785  1.0000
