data_image0
_chemical_formula_structural       Cs2MnBr6
_chemical_formula_sum              "Cs2 Mn1 Br6"
_cell_length_a       7.874727220084605
_cell_length_b       7.874727065063987
_cell_length_c       7.874727205451227
_cell_angle_alpha    60.000000763669036
_cell_angle_beta     59.99999918370182
_cell_angle_gamma    59.99999887240438

_space_group_name_H-M_alt    "P 1"
_space_group_IT_number       1

loop_
  _space_group_symop_operation_xyz
  'x, y, z'

loop_
  _atom_site_type_symbol
  _atom_site_label
  _atom_site_symmetry_multiplicity
  _atom_site_fract_x
  _atom_site_fract_y
  _atom_site_fract_z
  _atom_site_occupancy
  Cs  Cs1       1.0  0.2499999004216457  0.24999990739121922  0.2500001004557462  1.0000
  Cs  Cs2       1.0  0.7500000322224233  0.7500000270096102  0.7500001066493904  1.0000
  Mn  Mn1       1.0  0.9999996319493575  8.542021433598991e-15  4.075251250938218e-07  1.0000
  Br  Br1       1.0  0.21788091296341106  0.21788093898420288  0.7821190626881732  1.0000
  Br  Br2       1.0  0.7821191702076066  0.7821191245053151  0.21788075190197856  1.0000
  Br  Br3       1.0  0.7821193018174473  0.21788085547495836  0.2178808674745569  1.0000
  Br  Br4       1.0  0.21788089058937304  0.7821191442478521  0.7821188456481597  1.0000
  Br  Br5       1.0  0.21788094270854574  0.7821191788228209  0.21788094693459295  1.0000
  Br  Br6       1.0  0.7821192172609579  0.21788083023170465  0.7821188742522046  1.0000
