data_image0
_chemical_formula_structural       Cs2MnCl6
_chemical_formula_sum              "Cs2 Mn1 Cl6"
_cell_length_a       7.506247513983446
_cell_length_b       7.506247495125207
_cell_length_c       7.50624767724022
_cell_angle_alpha    60.00000013468863
_cell_angle_beta     60.00000043810544
_cell_angle_gamma    60.00000053254926

_space_group_name_H-M_alt    "P 1"
_space_group_IT_number       1

loop_
  _space_group_symop_operation_xyz
  'x, y, z'

loop_
  _atom_site_type_symbol
  _atom_site_label
  _atom_site_symmetry_multiplicity
  _atom_site_fract_x
  _atom_site_fract_y
  _atom_site_fract_z
  _atom_site_occupancy
  Cs  Cs1       1.0  0.2500000407039887  0.2499999166762396  0.25000000013939777  1.0000
  Cs  Cs2       1.0  0.749999980287891  0.7499999539829695  0.7500000026586945  1.0000
  Mn  Mn1       1.0  0.9999999840889385  0.9999999738938553  0.9999999397429656  1.0000
  Cl  Cl1       1.0  0.21718535855376647  0.2171854362919767  0.7828145837354086  1.0000
  Cl  Cl2       1.0  0.7828144853260098  0.7828146334265806  0.21718544805576773  1.0000
  Cl  Cl3       1.0  0.7828146372516155  0.21718532472259366  0.21718538171760526  1.0000
  Cl  Cl4       1.0  0.21718538678213742  0.7828147629439393  0.7828146522715871  1.0000
  Cl  Cl5       1.0  0.21718542358277704  0.7828146696684041  0.2171853164695826  1.0000
  Cl  Cl6       1.0  0.7828147093784376  0.21718529888884716  0.7828147452583207  1.0000
