data_image0
_chemical_formula_structural       Cs2MnF6
_chemical_formula_sum              "Cs2 Mn1 F6"
_cell_length_a       6.540884976186684
_cell_length_b       6.540884856887716
_cell_length_c       6.540884973558046
_cell_angle_alpha    60.00000218396976
_cell_angle_beta     60.00000179642856
_cell_angle_gamma    60.00000216152609

_space_group_name_H-M_alt    "P 1"
_space_group_IT_number       1

loop_
  _space_group_symop_operation_xyz
  'x, y, z'

loop_
  _atom_site_type_symbol
  _atom_site_label
  _atom_site_symmetry_multiplicity
  _atom_site_fract_x
  _atom_site_fract_y
  _atom_site_fract_z
  _atom_site_occupancy
  Cs  Cs1       1.0  0.24999997680901312  0.25000011783895987  0.24999994037478432  1.0000
  Cs  Cs2       1.0  0.7499999340160266  0.7500000726501025  0.7500000438497229  1.0000
  Mn  Mn1       1.0  0.9999999475563143  3.744888958090433e-09  0.9999999922436504  1.0000
  F   F1        1.0  0.2004130013711129  0.20041302483515624  0.799586974909109  1.0000
  F   F2        1.0  0.7995869752923933  0.7995869840267217  0.20041300299825976  1.0000
  F   F3        1.0  0.7995870161220718  0.20041305654437863  0.20041299592190595  1.0000
  F   F4        1.0  0.20041304884609323  0.7995868886543672  0.7995871179626748  1.0000
  F   F5        1.0  0.20041307263457062  0.799586832655634  0.2004129495586203  1.0000
  F   F6        1.0  0.7995869823136234  0.20041302079329149  0.7995869736533271  1.0000
