data_image0
_chemical_formula_structural       Cs2NbBr6
_chemical_formula_sum              "Cs2 Nb1 Br6"
_cell_length_a       7.906044038555692
_cell_length_b       7.906043533632138
_cell_length_c       7.906044176422764
_cell_angle_alpha    59.99999661097867
_cell_angle_beta     60.00000098493576
_cell_angle_gamma    60.000003530084214

_space_group_name_H-M_alt    "P 1"
_space_group_IT_number       1

loop_
  _space_group_symop_operation_xyz
  'x, y, z'

loop_
  _atom_site_type_symbol
  _atom_site_label
  _atom_site_symmetry_multiplicity
  _atom_site_fract_x
  _atom_site_fract_y
  _atom_site_fract_z
  _atom_site_occupancy
  Cs  Cs1       1.0  0.2500000961691327  0.2499998866624346  0.24999999526134112  1.0000
  Cs  Cs2       1.0  0.750000033527219  0.750000087545762  0.7499999564133564  1.0000
  Nb  Nb1       1.0  1.4760981377985616e-07  0.9999995352625368  8.646709033578289e-08  1.0000
  Br  Br1       1.0  0.23329245131160242  0.23329226430420455  0.766707639105419  1.0000
  Br  Br2       1.0  0.766707655854043  0.7667078957989802  0.23329221444402057  1.0000
  Br  Br3       1.0  0.7667074841159937  0.2332924041247818  0.23329252078700852  1.0000
  Br  Br4       1.0  0.23329230713245597  0.7667077792152525  0.7667076637714393  1.0000
  Br  Br5       1.0  0.2332923706186507  0.7667077432176842  0.23329233689537665  1.0000
  Br  Br6       1.0  0.7667074563912513  0.23329240294335798  0.7667075916062639  1.0000
