data_image0
_chemical_formula_structural       Cs2NbI6
_chemical_formula_sum              "Cs2 Nb1 I6"
_cell_length_a       8.493958220422257
_cell_length_b       8.493958417534918
_cell_length_c       8.493958016349318
_cell_angle_alpha    59.99999437034161
_cell_angle_beta     60.00000301087444
_cell_angle_gamma    59.99999723489638

_space_group_name_H-M_alt    "P 1"
_space_group_IT_number       1

loop_
  _space_group_symop_operation_xyz
  'x, y, z'

loop_
  _atom_site_type_symbol
  _atom_site_label
  _atom_site_symmetry_multiplicity
  _atom_site_fract_x
  _atom_site_fract_y
  _atom_site_fract_z
  _atom_site_occupancy
  Cs  Cs1       1.0  0.24999955315441671  0.24999995787767543  0.25000011285741547  1.0000
  Cs  Cs2       1.0  0.750000373299172  0.7500000380097144  0.7499998680343241  1.0000
  Nb  Nb1       1.0  0.999999999135348  0.999999974045773  5.696981635413751e-08  1.0000
  I   I1        1.0  0.23568102347696643  0.23568083407690135  0.7643190863360434  1.0000
  I   I2        1.0  0.7643189779106178  0.7643191531590684  0.23568098974092144  1.0000
  I   I3        1.0  0.7643192211209782  0.2356806985477116  0.23568085444494058  1.0000
  I   I4        1.0  0.23568082615761926  0.7643193059910823  0.7643190887866653  1.0000
  I   I5        1.0  0.23568081645850775  0.7643192915167047  0.2356807839242172  1.0000
  I   I6        1.0  0.7643192112790325  0.23568076348863434  0.7643191414900267  1.0000
