data_image0
_chemical_formula_structural       Cs2NiI6
_chemical_formula_sum              "Cs2 Ni1 I6"
_cell_length_a       8.358844922281884
_cell_length_b       8.358843054570258
_cell_length_c       8.358843898643752
_cell_angle_alpha    60.00001967919648
_cell_angle_beta     59.99999022665684
_cell_angle_gamma    60.000001206455835

_space_group_name_H-M_alt    "P 1"
_space_group_IT_number       1

loop_
  _space_group_symop_operation_xyz
  'x, y, z'

loop_
  _atom_site_type_symbol
  _atom_site_label
  _atom_site_symmetry_multiplicity
  _atom_site_fract_x
  _atom_site_fract_y
  _atom_site_fract_z
  _atom_site_occupancy
  Cs  Cs1       1.0  0.2500001347699461  0.24999993970281792  0.24999993475714283  1.0000
  Cs  Cs2       1.0  0.7499998817266179  0.7500001062893449  0.7500000571588565  1.0000
  Ni  Ni1       1.0  3.5749107334449294e-08  8.791254903575651e-09  0.9999999980675573  1.0000
  I   I1        1.0  0.23132872255153009  0.23132948374081347  0.7686706690390781  1.0000
  I   I2        1.0  0.7686713379995225  0.7686704010783562  0.23132913499057695  1.0000
  I   I3        1.0  0.7686703530641652  0.23132878749656005  0.23132924973749208  1.0000
  I   I4        1.0  0.23132960116123222  0.7686710225970953  0.7686709821849743  1.0000
  I   I5        1.0  0.23132926801041398  0.7686710447817723  0.23132925469202417  1.0000
  I   I6        1.0  0.7686706832915545  0.23132918436144106  0.768670706957891  1.0000
