data_image0
_chemical_formula_structural       Cs2NiCl6
_chemical_formula_sum              "Cs2 Ni1 Cl6"
_cell_length_a       7.430209224505325
_cell_length_b       7.430209332704185
_cell_length_c       7.430209383852636
_cell_angle_alpha    59.99999918389085
_cell_angle_beta     59.999999463652
_cell_angle_gamma    60.000000429354856

_space_group_name_H-M_alt    "P 1"
_space_group_IT_number       1

loop_
  _space_group_symop_operation_xyz
  'x, y, z'

loop_
  _atom_site_type_symbol
  _atom_site_label
  _atom_site_symmetry_multiplicity
  _atom_site_fract_x
  _atom_site_fract_y
  _atom_site_fract_z
  _atom_site_occupancy
  Cs  Cs1       1.0  0.24999994518886523  0.2500000060921577  0.2499999869773978  1.0000
  Cs  Cs2       1.0  0.7499999147294857  0.7500000232214683  0.7499999632915353  1.0000
  Ni  Ni1       1.0  0.9999999708956494  5.933993760254013e-08  0.9999999054766378  1.0000
  Cl  Cl1       1.0  0.22124772172808424  0.2212476399991463  0.7787523650284263  1.0000
  Cl  Cl2       1.0  0.778752236098943  0.7787522261296521  0.22124776323114928  1.0000
  Cl  Cl3       1.0  0.7787522723945733  0.2212478079124636  0.22124776908112645  1.0000
  Cl  Cl4       1.0  0.22124776330514404  0.7787522395328096  0.7787523116811486  1.0000
  Cl  Cl5       1.0  0.22124778935152525  0.7787523309776359  0.2212475789754499  1.0000
  Cl  Cl6       1.0  0.7787523765446643  0.22124768020434438  0.7787523296555263  1.0000
