data_image0
_chemical_formula_structural       Cs2NiF6
_chemical_formula_sum              "Cs2 Ni1 F6"
_cell_length_a       6.536258097238344
_cell_length_b       6.536257956577488
_cell_length_c       6.536257993137219
_cell_angle_alpha    60.00000596941366
_cell_angle_beta     59.999997008592445
_cell_angle_gamma    60.00000248916329

_space_group_name_H-M_alt    "P 1"
_space_group_IT_number       1

loop_
  _space_group_symop_operation_xyz
  'x, y, z'

loop_
  _atom_site_type_symbol
  _atom_site_label
  _atom_site_symmetry_multiplicity
  _atom_site_fract_x
  _atom_site_fract_y
  _atom_site_fract_z
  _atom_site_occupancy
  Cs  Cs1       1.0  0.2500000556231825  0.25000023893177337  0.24999962261943287  1.0000
  Cs  Cs2       1.0  0.7499998604384082  0.7499999560444968  0.749999799230369  1.0000
  Ni  Ni1       1.0  3.1817326596746336e-08  0.9999999681459033  3.673663958122723e-08  1.0000
  F   F1        1.0  0.19495277641844413  0.19495290300433463  0.8050473197452731  1.0000
  F   F2        1.0  0.8050472687525588  0.805047037139206  0.194952992656879  1.0000
  F   F3        1.0  0.8050470804347236  0.19495304129314844  0.19495273538824334  1.0000
  F   F4        1.0  0.1949529107735988  0.8050469494421685  0.8050472268160697  1.0000
  F   F5        1.0  0.19495295323839223  0.8050469081348487  0.1949529591219628  1.0000
  F   F6        1.0  0.8050469200726093  0.1949529964070306  0.8050472198722813  1.0000
