data_image0
_chemical_formula_structural       Cs2NbF6
_chemical_formula_sum              "Cs2 Nb1 F6"
_cell_length_a       6.770751197645979
_cell_length_b       6.770749686076516
_cell_length_c       6.7707499872937404
_cell_angle_alpha    59.99999982964119
_cell_angle_beta     60.000001697380846
_cell_angle_gamma    59.999997192734014

_space_group_name_H-M_alt    "P 1"
_space_group_IT_number       1

loop_
  _space_group_symop_operation_xyz
  'x, y, z'

loop_
  _atom_site_type_symbol
  _atom_site_label
  _atom_site_symmetry_multiplicity
  _atom_site_fract_x
  _atom_site_fract_y
  _atom_site_fract_z
  _atom_site_occupancy
  Cs  Cs1       1.0  0.24999999111612212  0.24999987770847185  0.24999998274113627  1.0000
  Cs  Cs2       1.0  0.7500000184221233  0.7500001016244028  0.7499999705789375  1.0000
  Nb  Nb1       1.0  3.7537095475247794e-08  0.9999999692490998  0.999999922759838  1.0000
  F   F1        1.0  0.20952366531474237  0.20952360152633676  0.7904763948564802  1.0000
  F   F2        1.0  0.7904763791240972  0.7904763958953056  0.20952366046280116  1.0000
  F   F3        1.0  0.7904763356544168  0.20952360799491906  0.20952368396457433  1.0000
  F   F4        1.0  0.20952362880087494  0.7904764400752579  0.7904762855902113  1.0000
  F   F5        1.0  0.209523611275549  0.7904764132054826  0.20952368992685477  1.0000
  F   F6        1.0  0.7904763095806148  0.20952356612739492  0.7904764288434445  1.0000
