data_image0
_chemical_formula_structural       Cs2NbCl6
_chemical_formula_sum              "Cs2 Nb1 Cl6"
_cell_length_a       7.61930081431157
_cell_length_b       7.619300965955772
_cell_length_c       7.619301121227761
_cell_angle_alpha    60.00000022119868
_cell_angle_beta     60.00000327302274
_cell_angle_gamma    60.000002915865814

_space_group_name_H-M_alt    "P 1"
_space_group_IT_number       1

loop_
  _space_group_symop_operation_xyz
  'x, y, z'

loop_
  _atom_site_type_symbol
  _atom_site_label
  _atom_site_symmetry_multiplicity
  _atom_site_fract_x
  _atom_site_fract_y
  _atom_site_fract_z
  _atom_site_occupancy
  Cs  Cs1       1.0  0.2500000003347714  0.24999998743503565  0.24999994030520836  1.0000
  Cs  Cs2       1.0  0.750000007754423  0.7500000057055586  0.7499999835216008  1.0000
  Nb  Nb1       1.0  0.9999998835092854  0.9999998038942488  0.9999999568048651  1.0000
  Cl  Cl1       1.0  0.22677416897286304  0.22677417467976535  0.7732258059411863  1.0000
  Cl  Cl2       1.0  0.7732259957899361  0.7732260531447626  0.22677395108089987  1.0000
  Cl  Cl3       1.0  0.7732257228085667  0.22677425774020638  0.22677426613637783  1.0000
  Cl  Cl4       1.0  0.22677416393341457  0.7732257675488671  0.7732259477191282  1.0000
  Cl  Cl5       1.0  0.22677418375718025  0.7732258229501288  0.22677416817452992  1.0000
  Cl  Cl6       1.0  0.7732258662615935  0.22677411714546702  0.7732259685780901  1.0000
