data_image0
_chemical_formula_structural       Cs2OsI6
_chemical_formula_sum              "Cs2 Os1 I6"
_cell_length_a       8.396280955547494
_cell_length_b       8.396280219401778
_cell_length_c       8.396279531512475
_cell_angle_alpha    60.00000513484253
_cell_angle_beta     60.000008681007905
_cell_angle_gamma    60.000001643938255

_space_group_name_H-M_alt    "P 1"
_space_group_IT_number       1

loop_
  _space_group_symop_operation_xyz
  'x, y, z'

loop_
  _atom_site_type_symbol
  _atom_site_label
  _atom_site_symmetry_multiplicity
  _atom_site_fract_x
  _atom_site_fract_y
  _atom_site_fract_z
  _atom_site_occupancy
  Cs  Cs1       1.0  0.2500000392725629  0.24999998065404103  0.25000000687978113  1.0000
  Cs  Cs2       1.0  0.7499999929604816  0.7499999988504689  0.7500000284216912  1.0000
  Os  Os1       1.0  0.9999999545189278  2.9173504650153808e-08  0.9999996317966137  1.0000
  I   I1        1.0  0.2297231563184607  0.22972376472681524  0.7702764976246005  1.0000
  I   I2        1.0  0.7702767797851412  0.7702762556206089  0.22972350576994954  1.0000
  I   I3        1.0  0.7702769722369351  0.2297234411798062  0.22972326455445854  1.0000
  I   I4        1.0  0.22972305435195708  0.7702767862995413  0.7702767329519346  1.0000
  I   I5        1.0  0.22972306319112817  0.7702765487013802  0.22972374128417739  1.0000
  I   I6        1.0  0.7702769792980573  0.22972318136962064  0.7702765970205447  1.0000
