data_image0
_chemical_formula_structural       Cs2OsCl6
_chemical_formula_sum              "Cs2 Os1 Cl6"
_cell_length_a       7.480025943169785
_cell_length_b       7.4800257585403545
_cell_length_c       7.480025656282485
_cell_angle_alpha    59.99999765578077
_cell_angle_beta     60.0000014372285
_cell_angle_gamma    59.999996506439444

_space_group_name_H-M_alt    "P 1"
_space_group_IT_number       1

loop_
  _space_group_symop_operation_xyz
  'x, y, z'

loop_
  _atom_site_type_symbol
  _atom_site_label
  _atom_site_symmetry_multiplicity
  _atom_site_fract_x
  _atom_site_fract_y
  _atom_site_fract_z
  _atom_site_occupancy
  Cs  Cs1       1.0  0.25000006835871247  0.24999992143720162  0.24999999904846443  1.0000
  Cs  Cs2       1.0  0.7499999659825433  0.7500000786835561  0.7499999528217389  1.0000
  Os  Os1       1.0  9.083021306874358e-08  0.9999999590661515  0.9999999536615177  1.0000
  Cl  Cl1       1.0  0.22355280698600422  0.22355281916613717  0.7764471629275924  1.0000
  Cl  Cl2       1.0  0.7764471945466647  0.7764472284378839  0.22355277625769623  1.0000
  Cl  Cl3       1.0  0.7764471800413503  0.22355275403096245  0.22355279745334936  1.0000
  Cl  Cl4       1.0  0.22355275855763102  0.776447301759827  0.7764472519928151  1.0000
  Cl  Cl5       1.0  0.2235527175743879  0.7764472181233367  0.22355277221960246  1.0000
  Cl  Cl6       1.0  0.7764471830257831  0.2235527525250515  0.7764473548398951  1.0000
