data_image0
_chemical_formula_structural       Cs2OsBr6
_chemical_formula_sum              "Cs2 Os1 Br6"
_cell_length_a       7.821345850244409
_cell_length_b       7.821345827299621
_cell_length_c       7.821345501253842
_cell_angle_alpha    59.999999471190606
_cell_angle_beta     60.000002755274494
_cell_angle_gamma    59.999997592042824

_space_group_name_H-M_alt    "P 1"
_space_group_IT_number       1

loop_
  _space_group_symop_operation_xyz
  'x, y, z'

loop_
  _atom_site_type_symbol
  _atom_site_label
  _atom_site_symmetry_multiplicity
  _atom_site_fract_x
  _atom_site_fract_y
  _atom_site_fract_z
  _atom_site_occupancy
  Cs  Cs1       1.0  0.25000003767649637  0.25000002487046413  0.2499999636231514  1.0000
  Cs  Cs2       1.0  0.7500000588985998  0.7499999712619639  0.7499999811165855  1.0000
  Os  Os1       1.0  0.9999999796740261  7.829501655687976e-09  5.0997569512682013e-08  1.0000
  Br  Br1       1.0  0.22746400591581115  0.22746402555763134  0.7725359804653584  1.0000
  Br  Br2       1.0  0.7725359606206328  0.7725360285131173  0.22746399265322778  1.0000
  Br  Br3       1.0  0.7725359815621621  0.22746395904808744  0.22746389148861607  1.0000
  Br  Br4       1.0  0.22746400440734066  0.7725359791460314  0.7725359751469183  1.0000
  Br  Br5       1.0  0.22746390576571493  0.7725360812597027  0.22746392547277708  1.0000
  Br  Br6       1.0  0.7725360689738245  0.22746390391142102  0.7725362569914099  1.0000
