data_image0
_chemical_formula_structural       Cs2PtCl6
_chemical_formula_sum              "Cs2 Pt1 Cl6"
_cell_length_a       7.453476917307729
_cell_length_b       7.453476898942497
_cell_length_c       7.45347697045788
_cell_angle_alpha    59.99999960230326
_cell_angle_beta     60.00000029576058
_cell_angle_gamma    60.00000095770189

_space_group_name_H-M_alt    "P 1"
_space_group_IT_number       1

loop_
  _space_group_symop_operation_xyz
  'x, y, z'

loop_
  _atom_site_type_symbol
  _atom_site_label
  _atom_site_symmetry_multiplicity
  _atom_site_fract_x
  _atom_site_fract_y
  _atom_site_fract_z
  _atom_site_occupancy
  Cs  Cs1       1.0  0.24999994105806952  0.250000059353383  0.2500000160453658  1.0000
  Cs  Cs2       1.0  0.7500000370164033  0.7499999315822554  0.7500000376208337  1.0000
  Pt  Pt1       1.0  7.1043491675862386e-09  6.572743892991453e-09  3.0727813611805623e-08  1.0000
  Cl  Cl1       1.0  0.22330288535284906  0.22330313773930652  0.7766969904958477  1.0000
  Cl  Cl2       1.0  0.7766971610748398  0.776696843337217  0.22330300306521972  1.0000
  Cl  Cl3       1.0  0.7766969705116505  0.223303157251312  0.22330298832060444  1.0000
  Cl  Cl4       1.0  0.22330299540269324  0.7766969026981373  0.7766969738609352  1.0000
  Cl  Cl5       1.0  0.2233030631954487  0.7766968484453239  0.2233030951640196  1.0000
  Cl  Cl6       1.0  0.7766969688517146  0.2233031014106659  0.7766968567981029  1.0000
