data_image0
_chemical_formula_structural       Cs2PbBr6
_chemical_formula_sum              "Cs2 Pb1 Br6"
_cell_length_a       8.249537206329336
_cell_length_b       8.249536636880864
_cell_length_c       8.249537241363505
_cell_angle_alpha    59.99999959161301
_cell_angle_beta     59.99999638948147
_cell_angle_gamma    59.99999740186709

_space_group_name_H-M_alt    "P 1"
_space_group_IT_number       1

loop_
  _space_group_symop_operation_xyz
  'x, y, z'

loop_
  _atom_site_type_symbol
  _atom_site_label
  _atom_site_symmetry_multiplicity
  _atom_site_fract_x
  _atom_site_fract_y
  _atom_site_fract_z
  _atom_site_occupancy
  Cs  Cs1       1.0  0.24999998417280309  0.24999996628982116  0.2500000352720079  1.0000
  Cs  Cs2       1.0  0.750000022460485  0.7499999745852169  0.7500000099555136  1.0000
  Pb  Pb1       1.0  2.5723468059375386e-07  1.1431593632113157e-07  0.9999996760351171  1.0000
  Br  Br1       1.0  0.24631846416992798  0.24631893966487103  0.7536812964218641  1.0000
  Br  Br2       1.0  0.753681247717723  0.7536809700330918  0.24631885479412796  1.0000
  Br  Br3       1.0  0.7536810991311744  0.24631897430895705  0.24631884611724414  1.0000
  Br  Br4       1.0  0.24631875657047844  0.7536811254207059  0.7536812363632219  1.0000
  Br  Br5       1.0  0.2463190194457618  0.7536811962528889  0.24631888814811823  1.0000
  Br  Br6       1.0  0.7536811400961503  0.2463187268066791  0.7536811671129312  1.0000
