data_image0
_chemical_formula_structural       Cs2PdF6
_chemical_formula_sum              "Cs2 Pd1 F6"
_cell_length_a       6.511417777651982
_cell_length_b       6.511418332594381
_cell_length_c       6.511418063955312
_cell_angle_alpha    60.0000016562628
_cell_angle_beta     59.999999640940075
_cell_angle_gamma    60.00000305581762

_space_group_name_H-M_alt    "P 1"
_space_group_IT_number       1

loop_
  _space_group_symop_operation_xyz
  'x, y, z'

loop_
  _atom_site_type_symbol
  _atom_site_label
  _atom_site_symmetry_multiplicity
  _atom_site_fract_x
  _atom_site_fract_y
  _atom_site_fract_z
  _atom_site_occupancy
  Cs  Cs1       1.0  0.24999996233697552  0.24999994648684531  0.2500000939777327  1.0000
  Cs  Cs2       1.0  0.7500000187364174  0.7500000614089404  0.7499999653417482  1.0000
  Pd  Pd1       1.0  3.5556061273191975e-08  2.6332861875618136e-08  0.9999997924427044  1.0000
  F   F1        1.0  0.21261507672294744  0.21261504697811345  0.7873850349879713  1.0000
  F   F2        1.0  0.7873850396442464  0.7873849646795109  0.2126151007012498  1.0000
  F   F3        1.0  0.7873848605132018  0.21261506798554566  0.21261521111174755  1.0000
  F   F4        1.0  0.21261516924893242  0.7873848044840963  0.7873848700757418  1.0000
  F   F5        1.0  0.21261513551729735  0.7873848068448357  0.21261524061777679  1.0000
  F   F6        1.0  0.7873847171036316  0.21261527252585827  0.7873846659703556  1.0000
