data_image0
_chemical_formula_structural       Cs2PtBr6
_chemical_formula_sum              "Cs2 Pt1 Br6"
_cell_length_a       7.753675249056521
_cell_length_b       7.753675029528089
_cell_length_c       7.7536742702814285
_cell_angle_alpha    60.00000113945347
_cell_angle_beta     60.000002976623286
_cell_angle_gamma    59.99999902743974

_space_group_name_H-M_alt    "P 1"
_space_group_IT_number       1

loop_
  _space_group_symop_operation_xyz
  'x, y, z'

loop_
  _atom_site_type_symbol
  _atom_site_label
  _atom_site_symmetry_multiplicity
  _atom_site_fract_x
  _atom_site_fract_y
  _atom_site_fract_z
  _atom_site_occupancy
  Cs  Cs1       1.0  0.2500000909773874  0.24999995474516068  0.25000005665351976  1.0000
  Cs  Cs2       1.0  0.7499999772799434  0.7500000095556515  0.7499999239885131  1.0000
  Pt  Pt1       1.0  1.2263054028426818e-07  0.9999998688959445  0.9999998791347791  1.0000
  Br  Br1       1.0  0.22850176168626946  0.22850189731692971  0.7714981376813013  1.0000
  Br  Br2       1.0  0.7714981746282933  0.7714982438953812  0.2285018527191427  1.0000
  Br  Br3       1.0  0.7714982065670533  0.22850168596113624  0.22850170995363792  1.0000
  Br  Br4       1.0  0.22850172403326519  0.771498338363221  0.7714983610935742  1.0000
  Br  Br5       1.0  0.22850167984334568  0.7714982761677323  0.22850160229263022  1.0000
  Br  Br6       1.0  0.7714982586548081  0.22850172446312128  0.7714984547273269  1.0000
