data_image0
_chemical_formula_structural       Cs2PI6
_chemical_formula_sum              "Cs2 P1 I6"
_cell_length_a       8.405669222859563
_cell_length_b       8.405669788106906
_cell_length_c       8.40566937384044
_cell_angle_alpha    60.00000127950842
_cell_angle_beta     60.00000218354142
_cell_angle_gamma    60.00000669293715

_space_group_name_H-M_alt    "P 1"
_space_group_IT_number       1

loop_
  _space_group_symop_operation_xyz
  'x, y, z'

loop_
  _atom_site_type_symbol
  _atom_site_label
  _atom_site_symmetry_multiplicity
  _atom_site_fract_x
  _atom_site_fract_y
  _atom_site_fract_z
  _atom_site_occupancy
  Cs  Cs1       1.0  0.25000000806076583  0.2500000574797725  0.2500000007336322  1.0000
  Cs  Cs2       1.0  0.7500000398384767  0.7499999276555788  0.7499999418827099  1.0000
  P   P1        1.0  2.1798508309225257e-08  3.3512060324656626e-08  2.4690339039245177e-08  1.0000
  I   I1        1.0  0.23518680329712605  0.23518632166903217  0.764813374751989  1.0000
  I   I2        1.0  0.7648132752977063  0.7648135425314948  0.23518666770894073  1.0000
  I   I3        1.0  0.7648134934045505  0.23518661233621024  0.23518669846050197  1.0000
  I   I4        1.0  0.23518661416210085  0.7648133174313906  0.7648133954738615  1.0000
  I   I5        1.0  0.2351867767681376  0.7648132755571306  0.23518649731504523  1.0000
  I   I6        1.0  0.7648129487481219  0.2351869266780719  0.7648133944412826  1.0000
