data_image0
_chemical_formula_structural       Cs2PbCl6
_chemical_formula_sum              "Cs2 Pb1 Cl6"
_cell_length_a       7.8112757256465875
_cell_length_b       7.81127584033731
_cell_length_c       7.811276156950426
_cell_angle_alpha    59.999995244853146
_cell_angle_beta     59.99999624379419
_cell_angle_gamma    59.999995758561965

_space_group_name_H-M_alt    "P 1"
_space_group_IT_number       1

loop_
  _space_group_symop_operation_xyz
  'x, y, z'

loop_
  _atom_site_type_symbol
  _atom_site_label
  _atom_site_symmetry_multiplicity
  _atom_site_fract_x
  _atom_site_fract_y
  _atom_site_fract_z
  _atom_site_occupancy
  Cs  Cs1       1.0  0.2499999770465215  0.24999997701137291  0.2500000373932099  1.0000
  Cs  Cs2       1.0  0.7499999916119221  0.7500000157017556  0.7500000024838136  1.0000
  Pb  Pb1       1.0  0.9999998914140141  1.128901852685026e-07  0.9999999632824842  1.0000
  Cl  Cl1       1.0  0.23354406897775618  0.23354402711855382  0.7664559249872006  1.0000
  Cl  Cl2       1.0  0.7664558931861543  0.7664559185569995  0.23354412245287026  1.0000
  Cl  Cl3       1.0  0.7664559758348072  0.2335440171363376  0.2335441044378222  1.0000
  Cl  Cl4       1.0  0.23354408995506287  0.7664559724409529  0.7664558231511779  1.0000
  Cl  Cl5       1.0  0.2335440732500389  0.7664560048609759  0.2335440776519306  1.0000
  Cl  Cl6       1.0  0.7664560469967797  0.23354394551833083  0.7664559344820269  1.0000
