data_image0
_chemical_formula_structural       Cs2PF6
_chemical_formula_sum              "Cs2 P1 F6"
_cell_length_a       6.439341939130771
_cell_length_b       6.439341787018477
_cell_length_c       6.439342012975249
_cell_angle_alpha    59.99999677711934
_cell_angle_beta     59.99999803140986
_cell_angle_gamma    59.99999771358426

_space_group_name_H-M_alt    "P 1"
_space_group_IT_number       1

loop_
  _space_group_symop_operation_xyz
  'x, y, z'

loop_
  _atom_site_type_symbol
  _atom_site_label
  _atom_site_symmetry_multiplicity
  _atom_site_fract_x
  _atom_site_fract_y
  _atom_site_fract_z
  _atom_site_occupancy
  Cs  Cs1       1.0  0.2500001397772349  0.24999997437711555  0.24999999092288674  1.0000
  Cs  Cs2       1.0  0.7499999560156835  0.7499999897003748  0.7500001183417355  1.0000
  P   P1        1.0  0.9999999887156057  0.9999999961960555  1.2203030687383405e-08  1.0000
  F   F1        1.0  0.18255812789728568  0.18255807931970144  0.8174418893388038  1.0000
  F   F2        1.0  0.8174418703015921  0.8174419246992082  0.18255809190380623  1.0000
  F   F3        1.0  0.8174418779053277  0.1825580851495425  0.18255810742041412  1.0000
  F   F4        1.0  0.18255811480518508  0.8174419245752843  0.8174418411013918  1.0000
  F   F5        1.0  0.18255806509170971  0.8174419051724612  0.18255808757028927  1.0000
  F   F6        1.0  0.8174418703266267  0.18255813117997702  0.8174418576483552  1.0000
