data_image0
_chemical_formula_structural       Cs2ReI6
_chemical_formula_sum              "Cs2 Re1 I6"
_cell_length_a       8.363548968318296
_cell_length_b       8.363548754508024
_cell_length_c       8.363548455145791
_cell_angle_alpha    60.00000128031829
_cell_angle_beta     60.00000431028057
_cell_angle_gamma    59.999999560032975

_space_group_name_H-M_alt    "P 1"
_space_group_IT_number       1

loop_
  _space_group_symop_operation_xyz
  'x, y, z'

loop_
  _atom_site_type_symbol
  _atom_site_label
  _atom_site_symmetry_multiplicity
  _atom_site_fract_x
  _atom_site_fract_y
  _atom_site_fract_z
  _atom_site_occupancy
  Cs  Cs1       1.0  0.2499997770872374  0.2500001092253843  0.2500000472766455  1.0000
  Cs  Cs2       1.0  0.7500001267515252  0.7499999044691043  0.7500000405807642  1.0000
  Re  Re1       1.0  3.963648017940025e-08  0.999999852097199  0.9999994658661083  1.0000
  I   I1        1.0  0.23296253431984235  0.23296242601556627  0.7670374576401645  1.0000
  I   I2        1.0  0.7670375258368838  0.7670376198953732  0.23296241997056086  1.0000
  I   I3        1.0  0.7670374843305879  0.2329622791156102  0.23296251872949061  1.0000
  I   I4        1.0  0.23296232345943868  0.7670379688803504  0.7670378252223592  1.0000
  I   I5        1.0  0.23296242447259008  0.7670376331628282  0.23296230423090034  1.0000
  I   I6        1.0  0.767037773305055  0.23296219455486009  0.767037924538826  1.0000
