data_image0
_chemical_formula_structural       Cs2ReBr6
_chemical_formula_sum              "Cs2 Re1 Br6"
_cell_length_a       7.779971193308079
_cell_length_b       7.779971156480612
_cell_length_c       7.779971111621161
_cell_angle_alpha    59.99999904917043
_cell_angle_beta     60.000001102827476
_cell_angle_gamma    59.99999611596533

_space_group_name_H-M_alt    "P 1"
_space_group_IT_number       1

loop_
  _space_group_symop_operation_xyz
  'x, y, z'

loop_
  _atom_site_type_symbol
  _atom_site_label
  _atom_site_symmetry_multiplicity
  _atom_site_fract_x
  _atom_site_fract_y
  _atom_site_fract_z
  _atom_site_occupancy
  Cs  Cs1       1.0  0.2499999742575409  0.24999998357621045  0.25000002988965636  1.0000
  Cs  Cs2       1.0  0.7500000008793932  0.7500000058266114  0.7499999909327985  1.0000
  Re  Re1       1.0  8.354971091125776e-08  3.1484523789616113e-09  0.9999999849286587  1.0000
  Br  Br1       1.0  0.23061630323773763  0.23061636445772  0.7693837256825666  1.0000
  Br  Br2       1.0  0.7693836456775083  0.7693836768946279  0.23061639153087282  1.0000
  Br  Br3       1.0  0.7693837765467623  0.23061618982717952  0.2306163092318177  1.0000
  Br  Br4       1.0  0.23061623852975557  0.7693837287353783  0.7693836666294427  1.0000
  Br  Br5       1.0  0.23061622902679002  0.7693837939179424  0.23061628736093395  1.0000
  Br  Br6       1.0  0.7693837405771717  0.23061625215709158  0.7693836384829024  1.0000
