data_image0
_chemical_formula_structural       Cs2RhI6
_chemical_formula_sum              "Cs2 Rh1 I6"
_cell_length_a       8.449462746869541
_cell_length_b       8.44946239544132
_cell_length_c       8.449463149500637
_cell_angle_alpha    60.00000356204851
_cell_angle_beta     59.99999551616016
_cell_angle_gamma    60.00000729206877

_space_group_name_H-M_alt    "P 1"
_space_group_IT_number       1

loop_
  _space_group_symop_operation_xyz
  'x, y, z'

loop_
  _atom_site_type_symbol
  _atom_site_label
  _atom_site_symmetry_multiplicity
  _atom_site_fract_x
  _atom_site_fract_y
  _atom_site_fract_z
  _atom_site_occupancy
  Cs  Cs1       1.0  0.250000053039232  0.2500000193674811  0.24999994401162237  1.0000
  Cs  Cs2       1.0  0.74999994500498  0.7499999870772132  0.7500000846700059  1.0000
  Rh  Rh1       1.0  0.9999999326767617  6.667670708970134e-08  0.9999996807763415  1.0000
  I   I1        1.0  0.2262077771734199  0.22620780475310936  0.7737922022430862  1.0000
  I   I2        1.0  0.7737922465732148  0.773792239378434  0.2262077272840003  1.0000
  I   I3        1.0  0.7737921150531442  0.22620756373673753  0.2262078050271549  1.0000
  I   I4        1.0  0.22620767809629058  0.7737925572180001  0.7737923493253362  1.0000
  I   I5        1.0  0.22620775596275758  0.7737925890372506  0.2262078446617269  1.0000
  I   I6        1.0  0.7737924867615147  0.2262071753419238  0.7737923590551785  1.0000
