data_image0
_chemical_formula_structural       Cs2RhCl6
_chemical_formula_sum              "Cs2 Rh1 Cl6"
_cell_length_a       7.550337463524225
_cell_length_b       7.550336910500998
_cell_length_c       7.550337152800345
_cell_angle_alpha    60.00000148531815
_cell_angle_beta     60.00000157186543
_cell_angle_gamma    59.99999761685325

_space_group_name_H-M_alt    "P 1"
_space_group_IT_number       1

loop_
  _space_group_symop_operation_xyz
  'x, y, z'

loop_
  _atom_site_type_symbol
  _atom_site_label
  _atom_site_symmetry_multiplicity
  _atom_site_fract_x
  _atom_site_fract_y
  _atom_site_fract_z
  _atom_site_occupancy
  Cs  Cs1       1.0  0.2500000092215361  0.2500000104361382  0.2499999759910435  1.0000
  Cs  Cs2       1.0  0.75000000016839  0.7499999761568062  0.7500001030659035  1.0000
  Rh  Rh1       1.0  2.6555338488339108e-08  0.9999999708020839  0.9999999006635316  1.0000
  Cl  Cl1       1.0  0.22070315524098752  0.22070306189732816  0.7792968453303192  1.0000
  Cl  Cl2       1.0  0.7792968781703892  0.779296921451397  0.2207030034802805  1.0000
  Cl  Cl3       1.0  0.7792969542160794  0.2207030824491054  0.22070300741476379  1.0000
  Cl  Cl4       1.0  0.2207029807133962  0.7792970128249608  0.7792970770474006  1.0000
  Cl  Cl5       1.0  0.22070301517339372  0.7792969792983396  0.22070295361022357  1.0000
  Cl  Cl6       1.0  0.7792970072093021  0.22070294078824584  0.7792970793590877  1.0000
