data_image0
_chemical_formula_structural       Cs2RhBr6
_chemical_formula_sum              "Cs2 Rh1 Br6"
_cell_length_a       7.874908084277123
_cell_length_b       7.874908803232244
_cell_length_c       7.874908837991756
_cell_angle_alpha    59.99999667606695
_cell_angle_beta     60.00000140591237
_cell_angle_gamma    60.000000358263186

_space_group_name_H-M_alt    "P 1"
_space_group_IT_number       1

loop_
  _space_group_symop_operation_xyz
  'x, y, z'

loop_
  _atom_site_type_symbol
  _atom_site_label
  _atom_site_symmetry_multiplicity
  _atom_site_fract_x
  _atom_site_fract_y
  _atom_site_fract_z
  _atom_site_occupancy
  Cs  Cs1       1.0  0.2500000311059497  0.2499999236096833  0.2500000190543609  1.0000
  Cs  Cs2       1.0  0.7499999502222378  0.7500000725474799  0.749999957533966  1.0000
  Rh  Rh1       1.0  0.9999999982821162  0.9999999875580048  0.9999999727938286  1.0000
  Br  Br1       1.0  0.22568511545670394  0.2256849872216996  0.7743149297060379  1.0000
  Br  Br2       1.0  0.7743149970840669  0.7743149716094697  0.22568505327295035  1.0000
  Br  Br3       1.0  0.7743149057338568  0.22568500666951796  0.22568522004281577  1.0000
  Br  Br4       1.0  0.22568504004726567  0.7743150081506381  0.7743148107023603  1.0000
  Br  Br5       1.0  0.22568487275920124  0.7743151042695176  0.22568497654717132  1.0000
  Br  Br6       1.0  0.7743150826786857  0.22568491677163466  0.7743150919739396  1.0000
