data_image0
_chemical_formula_structural       Cs2ReF6
_chemical_formula_sum              "Cs2 Re1 F6"
_cell_length_a       6.624957770357832
_cell_length_b       6.624958398291605
_cell_length_c       6.62495776329599
_cell_angle_alpha    60.00000130376479
_cell_angle_beta     60.000001970537916
_cell_angle_gamma    60.0000023445987

_space_group_name_H-M_alt    "P 1"
_space_group_IT_number       1

loop_
  _space_group_symop_operation_xyz
  'x, y, z'

loop_
  _atom_site_type_symbol
  _atom_site_label
  _atom_site_symmetry_multiplicity
  _atom_site_fract_x
  _atom_site_fract_y
  _atom_site_fract_z
  _atom_site_occupancy
  Cs  Cs1       1.0  0.2500001726921302  0.2500000199661458  0.24999988241909663  1.0000
  Cs  Cs2       1.0  0.750000077199405  0.7499999027603714  0.7500001621152442  1.0000
  Re  Re1       1.0  3.746602171497989e-08  0.9999999242039948  0.9999999935044525  1.0000
  F   F1        1.0  0.2128673181530024  0.21286753330278654  0.787132576903487  1.0000
  F   F2        1.0  0.7871325219657511  0.7871325206802349  0.2128674212274236  1.0000
  F   F3        1.0  0.7871324399716809  0.212867530911726  0.2128674357723061  1.0000
  F   F4        1.0  0.21286746655454963  0.7871325748344227  0.7871324564805516  1.0000
  F   F5        1.0  0.2128674864191811  0.7871325653059164  0.21286738639723343  1.0000
  F   F6        1.0  0.787132475742724  0.21286742582187707  0.7871327013857615  1.0000
