data_image0
_chemical_formula_structural       Cs2RuBr6
_chemical_formula_sum              "Cs2 Ru1 Br6"
_cell_length_a       7.795227853246037
_cell_length_b       7.7952278029676485
_cell_length_c       7.795227898003061
_cell_angle_alpha    59.99999956006574
_cell_angle_beta     60.00000096408393
_cell_angle_gamma    60.000003945754045

_space_group_name_H-M_alt    "P 1"
_space_group_IT_number       1

loop_
  _space_group_symop_operation_xyz
  'x, y, z'

loop_
  _atom_site_type_symbol
  _atom_site_label
  _atom_site_symmetry_multiplicity
  _atom_site_fract_x
  _atom_site_fract_y
  _atom_site_fract_z
  _atom_site_occupancy
  Cs  Cs1       1.0  0.2500000041556566  0.25000003978577917  0.24999997513715705  1.0000
  Cs  Cs2       1.0  0.7500000066342984  0.7499999591003451  0.7500000674667651  1.0000
  Ru  Ru1       1.0  0.999999920772702  3.7707525421184565e-08  0.9999996795254746  1.0000
  Br  Br1       1.0  0.227711459736164  0.22771158035120165  0.772288446215996  1.0000
  Br  Br2       1.0  0.7722886690025655  0.7722884735250732  0.22771137393783453  1.0000
  Br  Br3       1.0  0.7722882584377571  0.22771165259847506  0.22771165551332664  1.0000
  Br  Br4       1.0  0.22771148634606925  0.7722884688371008  0.7722885717085113  1.0000
  Br  Br5       1.0  0.22771171781669775  0.7722883064676416  0.22771157602925038  1.0000
  Br  Br6       1.0  0.7722884636094073  0.2277114960251176  0.7722886449391416  1.0000
