data_image0
_chemical_formula_structural       Cs2SnF6
_chemical_formula_sum              "Cs2 Sn1 F6"
_cell_length_a       6.703525666531261
_cell_length_b       6.703525610236288
_cell_length_c       6.703525611299298
_cell_angle_alpha    60.000003148067485
_cell_angle_beta     60.00000143544328
_cell_angle_gamma    60.000000237201576

_space_group_name_H-M_alt    "P 1"
_space_group_IT_number       1

loop_
  _space_group_symop_operation_xyz
  'x, y, z'

loop_
  _atom_site_type_symbol
  _atom_site_label
  _atom_site_symmetry_multiplicity
  _atom_site_fract_x
  _atom_site_fract_y
  _atom_site_fract_z
  _atom_site_occupancy
  Cs  Cs1       1.0  0.2499999616305669  0.24999997091171358  0.24999999927193076  1.0000
  Cs  Cs2       1.0  0.7499999760632255  0.7499999492754617  0.7500000294320205  1.0000
  Sn  Sn1       1.0  0.9999999968504844  1.4616126821925525e-08  0.9999999614481433  1.0000
  F   F1        1.0  0.21197420392793  0.21197424891047126  0.7880257698592463  1.0000
  F   F2        1.0  0.7880258004726842  0.7880257863787089  0.21197415451452406  1.0000
  F   F3        1.0  0.7880257398930964  0.211974298094623  0.2119743057173971  1.0000
  F   F4        1.0  0.21197423835614326  0.7880257536377054  0.7880257547846923  1.0000
  F   F5        1.0  0.2119743168623989  0.7880257355770697  0.21197424301148404  1.0000
  F   F6        1.0  0.7880257398409645  0.21197426682582352  0.7880257119313681  1.0000
