data_image0
_chemical_formula_structural       Cs2SiBr6
_chemical_formula_sum              "Cs2 Si1 Br6"
_cell_length_a       7.766671542755421
_cell_length_b       7.766671817838943
_cell_length_c       7.7666720230147845
_cell_angle_alpha    59.999998621623284
_cell_angle_beta     59.999998854551954
_cell_angle_gamma    59.99999814009253

_space_group_name_H-M_alt    "P 1"
_space_group_IT_number       1

loop_
  _space_group_symop_operation_xyz
  'x, y, z'

loop_
  _atom_site_type_symbol
  _atom_site_label
  _atom_site_symmetry_multiplicity
  _atom_site_fract_x
  _atom_site_fract_y
  _atom_site_fract_z
  _atom_site_occupancy
  Cs  Cs1       1.0  0.24999997521124187  0.2500000239182551  0.2499999997010029  1.0000
  Cs  Cs2       1.0  0.7500000482084875  0.7499999850239597  0.7499999438420017  1.0000
  Si  Si1       1.0  0.9999999469721277  5.203848250932724e-08  8.032296547136391e-08  1.0000
  Br  Br1       1.0  0.2250766964782921  0.22507676112803335  0.7749232804944164  1.0000
  Br  Br2       1.0  0.774923354408735  0.7749232367757142  0.2250767526881829  1.0000
  Br  Br3       1.0  0.7749232691304824  0.22507672391497438  0.22507678380061574  1.0000
  Br  Br4       1.0  0.2250767041163721  0.7749232392964541  0.7749231922435861  1.0000
  Br  Br5       1.0  0.22507667849102161  0.7749232253880778  0.22507684057292693  1.0000
  Br  Br6       1.0  0.7749232960621992  0.22507674728489283  0.774923123649557  1.0000
