data_image0
_chemical_formula_structural       Cs2SnBr6
_chemical_formula_sum              "Cs2 Sn1 Br6"
_cell_length_a       7.938696196825851
_cell_length_b       7.938696001289805
_cell_length_c       7.938696133122068
_cell_angle_alpha    59.999998713142304
_cell_angle_beta     59.9999971212492
_cell_angle_gamma    60.000000704150466

_space_group_name_H-M_alt    "P 1"
_space_group_IT_number       1

loop_
  _space_group_symop_operation_xyz
  'x, y, z'

loop_
  _atom_site_type_symbol
  _atom_site_label
  _atom_site_symmetry_multiplicity
  _atom_site_fract_x
  _atom_site_fract_y
  _atom_site_fract_z
  _atom_site_occupancy
  Cs  Cs1       1.0  0.25000000606976736  0.2499999700723723  0.2500000251825328  1.0000
  Cs  Cs2       1.0  0.7500000349425785  0.7499999734699984  0.7499998717996679  1.0000
  Sn  Sn1       1.0  1.1401756262684316e-08  0.9999999614311696  0.9999999493412494  1.0000
  Br  Br1       1.0  0.23671887497441454  0.23671888731779034  0.7632811253723911  1.0000
  Br  Br2       1.0  0.7632810878592252  0.763281164217304  0.23671892045765264  1.0000
  Br  Br3       1.0  0.763281093719114  0.2367188997307654  0.23671888600660765  1.0000
  Br  Br4       1.0  0.23671886251749377  0.7632811672318611  0.7632811516292282  1.0000
  Br  Br5       1.0  0.2367189455971904  0.7632810465861791  0.2367189302278179  1.0000
  Br  Br6       1.0  0.763281081883297  0.2367189200974901  0.7632811483782622  1.0000
