data_image0
_chemical_formula_structural       Cs2SnI6
_chemical_formula_sum              "Cs2 Sn1 I6"
_cell_length_a       8.563676077489612
_cell_length_b       8.563677164757303
_cell_length_c       8.56367475701654
_cell_angle_alpha    60.00000868882325
_cell_angle_beta     60.00000404307991
_cell_angle_gamma    59.99999246647594

_space_group_name_H-M_alt    "P 1"
_space_group_IT_number       1

loop_
  _space_group_symop_operation_xyz
  'x, y, z'

loop_
  _atom_site_type_symbol
  _atom_site_label
  _atom_site_symmetry_multiplicity
  _atom_site_fract_x
  _atom_site_fract_y
  _atom_site_fract_z
  _atom_site_occupancy
  Cs  Cs1       1.0  0.24999982607730542  0.25000033234740004  0.249999976193821  1.0000
  Cs  Cs2       1.0  0.7500001638263951  0.7499996441085706  0.7500000590672367  1.0000
  Sn  Sn1       1.0  9.32872690645397e-09  5.29160027799494e-08  0.9999999712130808  1.0000
  I   I1        1.0  0.24973025475578647  0.24972966556058804  0.7502700557230032  1.0000
  I   I2        1.0  0.7502697894098932  0.7502702937334265  0.24972993880130548  1.0000
  I   I3        1.0  0.7502702768717291  0.2497300794249147  0.24973006043824345  1.0000
  I   I4        1.0  0.24972969755959276  0.7502699070421945  0.7502699705470962  1.0000
  I   I5        1.0  0.2497296835662444  0.7502699771609787  0.249730387722803  1.0000
  I   I6        1.0  0.7502703070992413  0.2497300536411587  0.7502695756108042  1.0000
