data_image0
_chemical_formula_structural       Cs2SeBr6
_chemical_formula_sum              "Cs2 Se1 Br6"
_cell_length_a       8.02609781326772
_cell_length_b       8.026097773480933
_cell_length_c       8.026097746806736
_cell_angle_alpha    59.99999936820128
_cell_angle_beta     60.00000273920609
_cell_angle_gamma    59.999997207284

_space_group_name_H-M_alt    "P 1"
_space_group_IT_number       1

loop_
  _space_group_symop_operation_xyz
  'x, y, z'

loop_
  _atom_site_type_symbol
  _atom_site_label
  _atom_site_symmetry_multiplicity
  _atom_site_fract_x
  _atom_site_fract_y
  _atom_site_fract_z
  _atom_site_occupancy
  Cs  Cs1       1.0  0.25000001964407687  0.2499999263669291  0.25000004228624906  1.0000
  Cs  Cs2       1.0  0.7500000222494546  0.7499999927342257  0.7500000633021239  1.0000
  Se  Se1       1.0  0.9999999982246439  1.4343958719028148e-07  3.054404005054642e-07  1.0000
  Br  Br1       1.0  0.23053147326987694  0.23053149686385851  0.7694685482362863  1.0000
  Br  Br2       1.0  0.7694684381523125  0.7694685244761612  0.23053150169593487  1.0000
  Br  Br3       1.0  0.7694687116424297  0.23053131331277874  0.23053130294590468  1.0000
  Br  Br4       1.0  0.23053152098751925  0.7694684867640339  0.7694683282171436  1.0000
  Br  Br5       1.0  0.23053126595288514  0.769468754202364  0.2305313495966603  1.0000
  Br  Br6       1.0  0.7694685372613879  0.23053135869484917  0.769468560394597  1.0000
