data_image0
_chemical_formula_structural       Cs2SiCl6
_chemical_formula_sum              "Cs2 Si1 Cl6"
_cell_length_a       7.5182099789197085
_cell_length_b       7.518210775505431
_cell_length_c       7.518210142685134
_cell_angle_alpha    60.000003240618526
_cell_angle_beta     59.99999909141553
_cell_angle_gamma    60.000001971044576

_space_group_name_H-M_alt    "P 1"
_space_group_IT_number       1

loop_
  _space_group_symop_operation_xyz
  'x, y, z'

loop_
  _atom_site_type_symbol
  _atom_site_label
  _atom_site_symmetry_multiplicity
  _atom_site_fract_x
  _atom_site_fract_y
  _atom_site_fract_z
  _atom_site_occupancy
  Cs  Cs1       1.0  0.24999996469883382  0.2500000255549712  0.2499999852497239  1.0000
  Cs  Cs2       1.0  0.7500000396476273  0.7500000685197238  0.7499999429105639  1.0000
  Si  Si1       1.0  0.9999998179898507  9.448418323965103e-08  0.9999998788301104  1.0000
  Cl  Cl1       1.0  0.21113986416651265  0.21114004050188093  0.7888599998529038  1.0000
  Cl  Cl2       1.0  0.7888600733656438  0.7888598255075489  0.21114005579561082  1.0000
  Cl  Cl3       1.0  0.7888600990779026  0.21114003875937673  0.2111398215042905  1.0000
  Cl  Cl4       1.0  0.2111398815783215  0.7888600895251084  0.7888600880951826  1.0000
  Cl  Cl5       1.0  0.211139962976413  0.7888598808678833  0.2111401854604449  1.0000
  Cl  Cl6       1.0  0.7888602529051909  0.21113999328673225  0.7888600169033845  1.0000
