data_image0
_chemical_formula_structural       Cs2TaCl6
_chemical_formula_sum              "Cs2 Ta1 Cl6"
_cell_length_a       7.5934998515664445
_cell_length_b       7.59350087598117
_cell_length_c       7.59349922445716
_cell_angle_alpha    59.9999946106848
_cell_angle_beta     59.9999978352091
_cell_angle_gamma    60.00000540395838

_space_group_name_H-M_alt    "P 1"
_space_group_IT_number       1

loop_
  _space_group_symop_operation_xyz
  'x, y, z'

loop_
  _atom_site_type_symbol
  _atom_site_label
  _atom_site_symmetry_multiplicity
  _atom_site_fract_x
  _atom_site_fract_y
  _atom_site_fract_z
  _atom_site_occupancy
  Cs  Cs1       1.0  0.24999997116999437  0.2500000349659206  0.2499999241037475  1.0000
  Cs  Cs2       1.0  0.7500000644701162  0.7500000032859683  0.749999791095302  1.0000
  Ta  Ta1       1.0  0.9999998222402567  0.9999998854850757  3.6737922544514916e-07  1.0000
  Cl  Cl1       1.0  0.2249818064849434  0.22498165757768995  0.7750181573276659  1.0000
  Cl  Cl2       1.0  0.7750183036034  0.7750184903504299  0.22498148029521364  1.0000
  Cl  Cl3       1.0  0.7750180059594964  0.22498187571529543  0.2249818570151477  1.0000
  Cl  Cl4       1.0  0.22498171536863848  0.7750181383432325  0.7750184580680892  1.0000
  Cl  Cl5       1.0  0.22498210328564938  0.7750182421141693  0.22498163928974566  1.0000
  Cl  Cl6       1.0  0.7750182399250377  0.22498172194495608  0.7750183108369432  1.0000
