data_image0
_chemical_formula_structural       Cs2TeI6
_chemical_formula_sum              "Cs2 Te1 I6"
_cell_length_a       8.55524387241777
_cell_length_b       8.555243139682938
_cell_length_c       8.555243872619425
_cell_angle_alpha    59.9999997352091
_cell_angle_beta     59.999998160669044
_cell_angle_gamma    60.000003855299795

_space_group_name_H-M_alt    "P 1"
_space_group_IT_number       1

loop_
  _space_group_symop_operation_xyz
  'x, y, z'

loop_
  _atom_site_type_symbol
  _atom_site_label
  _atom_site_symmetry_multiplicity
  _atom_site_fract_x
  _atom_site_fract_y
  _atom_site_fract_z
  _atom_site_occupancy
  Cs  Cs1       1.0  0.25000014049931457  0.25000000259298316  0.24999988467955894  1.0000
  Cs  Cs2       1.0  0.7499998506289799  0.7500000521576583  0.7500000937837497  1.0000
  Te  Te1       1.0  0.9999998000270048  0.9999999642106759  0.9999999752785641  1.0000
  I   I1        1.0  0.24518493337905023  0.24518477533997865  0.7548151233106805  1.0000
  I   I2        1.0  0.7548151614164152  0.7548153166315459  0.2451847344470289  1.0000
  I   I3        1.0  0.7548152375142969  0.24518478482572995  0.24518483521459877  1.0000
  I   I4        1.0  0.24518471559084898  0.7548152584723316  0.7548151785064381  1.0000
  I   I5        1.0  0.2451849069792162  0.7548150325108227  0.24518498712601464  1.0000
  I   I6        1.0  0.7548152578276152  0.24518480893557287  0.7548151946633208  1.0000
