data_image0
_chemical_formula_structural       Cs2TeCl6
_chemical_formula_sum              "Cs2 Te1 Cl6"
_cell_length_a       7.6772709606090475
_cell_length_b       7.677270585894466
_cell_length_c       7.677271156610987
_cell_angle_alpha    59.99999660413989
_cell_angle_beta     59.99999721674785
_cell_angle_gamma    60.000000717503056

_space_group_name_H-M_alt    "P 1"
_space_group_IT_number       1

loop_
  _space_group_symop_operation_xyz
  'x, y, z'

loop_
  _atom_site_type_symbol
  _atom_site_label
  _atom_site_symmetry_multiplicity
  _atom_site_fract_x
  _atom_site_fract_y
  _atom_site_fract_z
  _atom_site_occupancy
  Cs  Cs1       1.0  0.2499999683065875  0.2500000098389432  0.24999999008453005  1.0000
  Cs  Cs2       1.0  0.7500000205648548  0.7500000119686786  0.7499999563738641  1.0000
  Te  Te1       1.0  0.9999996010146374  1.005030572922591e-07  5.961081101623578e-09  1.0000
  Cl  Cl1       1.0  0.23682710432178783  0.2368270171542739  0.7631729501873562  1.0000
  Cl  Cl2       1.0  0.7631730831599415  0.7631730269873722  0.23682697306947129  1.0000
  Cl  Cl3       1.0  0.7631728843512803  0.23682710063902074  0.23682720767612583  1.0000
  Cl  Cl4       1.0  0.23682717445203771  0.7631728557618418  0.7631727951342863  1.0000
  Cl  Cl5       1.0  0.23682723895694796  0.7631727968744245  0.23682724485580633  1.0000
  Cl  Cl6       1.0  0.7631729241133587  0.23682708135738487  0.7631728699500677  1.0000
