data_image0
_chemical_formula_structural       Cs2TiI6
_chemical_formula_sum              "Cs2 Ti1 I6"
_cell_length_a       8.45493169402286
_cell_length_b       8.454931871988757
_cell_length_c       8.454931421383383
_cell_angle_alpha    59.99999890539312
_cell_angle_beta     60.00000083348211
_cell_angle_gamma    59.99999787481548

_space_group_name_H-M_alt    "P 1"
_space_group_IT_number       1

loop_
  _space_group_symop_operation_xyz
  'x, y, z'

loop_
  _atom_site_type_symbol
  _atom_site_label
  _atom_site_symmetry_multiplicity
  _atom_site_fract_x
  _atom_site_fract_y
  _atom_site_fract_z
  _atom_site_occupancy
  Cs  Cs1       1.0  0.2500001858915299  0.24999983075285137  0.2499998804923047  1.0000
  Cs  Cs2       1.0  0.7499997988233343  0.7500001832201459  0.7500000893813288  1.0000
  Ti  Ti1       1.0  1.4442926245360135e-08  3.0419689940922785e-08  4.8533193489075646e-08  1.0000
  I   I1        1.0  0.23322548849704375  0.23322555387598373  0.7667744743847529  1.0000
  I   I2        1.0  0.7667744830719775  0.766774409397525  0.2332255759039575  1.0000
  I   I3        1.0  0.7667744377413896  0.2332255048879446  0.23322551887784068  1.0000
  I   I4        1.0  0.23322556610766304  0.766774484459587  0.766774450193207  1.0000
  I   I5        1.0  0.2332255821053511  0.766774460713767  0.23322547949003217  1.0000
  I   I6        1.0  0.7667744389180521  0.23322555905345627  0.766774476428669  1.0000
