data_image0
_chemical_formula_structural       Cs2TaF6
_chemical_formula_sum              "Cs2 Ta1 F6"
_cell_length_a       6.845470888265325
_cell_length_b       6.845472893090247
_cell_length_c       6.845471373334407
_cell_angle_alpha    59.999995909862996
_cell_angle_beta     59.99999634660497
_cell_angle_gamma    60.000001699482404

_space_group_name_H-M_alt    "P 1"
_space_group_IT_number       1

loop_
  _space_group_symop_operation_xyz
  'x, y, z'

loop_
  _atom_site_type_symbol
  _atom_site_label
  _atom_site_symmetry_multiplicity
  _atom_site_fract_x
  _atom_site_fract_y
  _atom_site_fract_z
  _atom_site_occupancy
  Cs  Cs1       1.0  0.25000010816054524  0.2500000430462206  0.2500000366624692  1.0000
  Cs  Cs2       1.0  0.7499999135170097  0.7499999198103786  0.7499999439066354  1.0000
  Ta  Ta1       1.0  3.680584094721608e-09  0.9999999838978191  1.0593259119144458e-08  1.0000
  F   F1        1.0  0.2003426966065735  0.20034260830460596  0.7996572839379307  1.0000
  F   F2        1.0  0.7996572700698588  0.7996574082259306  0.20034267684328597  1.0000
  F   F3        1.0  0.7996573937664695  0.20034257613288722  0.20034262344917092  1.0000
  F   F4        1.0  0.20034261804453452  0.7996574618672236  0.7996572981866911  1.0000
  F   F5        1.0  0.2003425785416024  0.7996573308351036  0.2003426808931892  1.0000
  F   F6        1.0  0.7996573788325444  0.20034264275628846  0.7996572811748097  1.0000
