data_image0
_chemical_formula_structural       Cs2TaBr6
_chemical_formula_sum              "Cs2 Ta1 Br6"
_cell_length_a       7.911079662793537
_cell_length_b       7.911079562486821
_cell_length_c       7.911080253603938
_cell_angle_alpha    59.99999757793543
_cell_angle_beta     60.00000252383666
_cell_angle_gamma    60.00000313456112

_space_group_name_H-M_alt    "P 1"
_space_group_IT_number       1

loop_
  _space_group_symop_operation_xyz
  'x, y, z'

loop_
  _atom_site_type_symbol
  _atom_site_label
  _atom_site_symmetry_multiplicity
  _atom_site_fract_x
  _atom_site_fract_y
  _atom_site_fract_z
  _atom_site_occupancy
  Cs  Cs1       1.0  0.25000001187471727  0.250000047235887  0.24999996094406396  1.0000
  Cs  Cs2       1.0  0.7499999943760447  0.7499999063905669  0.7500000463957875  1.0000
  Ta  Ta1       1.0  8.197278608205953e-08  3.870347341517327e-08  0.9999999004763274  1.0000
  Br  Br1       1.0  0.2309326185650144  0.23093263000944364  0.7690674100710345  1.0000
  Br  Br2       1.0  0.7690672738799873  0.7690673979276648  0.23093266757836076  1.0000
  Br  Br3       1.0  0.7690672935669207  0.23093268365388095  0.2309326439420825  1.0000
  Br  Br4       1.0  0.2309326962285225  0.769067367505314  0.7690673304433568  1.0000
  Br  Br5       1.0  0.23093271498306472  0.769067343844489  0.23093258599381136  1.0000
  Br  Br6       1.0  0.769067317039626  0.23093258501174582  0.7690674259013859  1.0000
