data_image0
_chemical_formula_structural       Cs2TeBr6
_chemical_formula_sum              "Cs2 Te1 Br6"
_cell_length_a       7.995783353259214
_cell_length_b       7.995783494703781
_cell_length_c       7.9957828434723845
_cell_angle_alpha    60.00000173307442
_cell_angle_beta     60.00000431986157
_cell_angle_gamma    60.00000086768634

_space_group_name_H-M_alt    "P 1"
_space_group_IT_number       1

loop_
  _space_group_symop_operation_xyz
  'x, y, z'

loop_
  _atom_site_type_symbol
  _atom_site_label
  _atom_site_symmetry_multiplicity
  _atom_site_fract_x
  _atom_site_fract_y
  _atom_site_fract_z
  _atom_site_occupancy
  Cs  Cs1       1.0  0.2499999433267121  0.24999997649961625  0.25000007849984046  1.0000
  Cs  Cs2       1.0  0.7500000252589495  0.7499999631970907  0.7500001347682488  1.0000
  Te  Te1       1.0  2.5702113125040235e-07  3.5536330084518417e-07  0.9999998676494254  1.0000
  Br  Br1       1.0  0.2424840898662203  0.24248409122083744  0.7575158537819112  1.0000
  Br  Br2       1.0  0.7575157051353149  0.7575156110564255  0.24248431735742487  1.0000
  Br  Br3       1.0  0.7575158819933241  0.24248412703458094  0.242484095334093  1.0000
  Br  Br4       1.0  0.24248416874795345  0.7575157958130084  0.7575157988797738  1.0000
  Br  Br5       1.0  0.24248405798318845  0.7575159420521226  0.24248399118322664  1.0000
  Br  Br6       1.0  0.7575158760282014  0.24248414469147672  0.7575158444291161  1.0000
