data_image0
_chemical_formula_structural       Cs2VBr6
_chemical_formula_sum              "Cs2 V1 Br6"
_cell_length_a       7.822023391201386
_cell_length_b       7.8220236795583435
_cell_length_c       7.82202363847142
_cell_angle_alpha    59.99999935123624
_cell_angle_beta     59.9999993766195
_cell_angle_gamma    59.999999891712335

_space_group_name_H-M_alt    "P 1"
_space_group_IT_number       1

loop_
  _space_group_symop_operation_xyz
  'x, y, z'

loop_
  _atom_site_type_symbol
  _atom_site_label
  _atom_site_symmetry_multiplicity
  _atom_site_fract_x
  _atom_site_fract_y
  _atom_site_fract_z
  _atom_site_occupancy
  Cs  Cs1       1.0  0.24999999691123448  0.2500000794139403  0.2499999982538252  1.0000
  Cs  Cs2       1.0  0.7499999671783165  0.7499999767591129  0.750000051624941  1.0000
  V   V1        1.0  1.0053377235316888e-07  0.9999998888307035  7.818893128812268e-08  1.0000
  Br  Br1       1.0  0.22644345579054867  0.2264435524162898  0.7735565017993508  1.0000
  Br  Br2       1.0  0.773556612171491  0.7735564755729988  0.22644344503453478  1.0000
  Br  Br3       1.0  0.7735564401133281  0.22644355830380666  0.22644350197891713  1.0000
  Br  Br4       1.0  0.22644347189161027  0.7735564681197171  0.7735565619696475  1.0000
  Br  Br5       1.0  0.22644343302259426  0.7735564537393761  0.22644341586600797  1.0000
  Br  Br6       1.0  0.773556507657302  0.22644353980309082  0.7735564366858682  1.0000
