data_image0
_chemical_formula_structural       Cs2VI6
_chemical_formula_sum              "Cs2 V1 I6"
_cell_length_a       8.426756391514916
_cell_length_b       8.426756929034164
_cell_length_c       8.42675650224272
_cell_angle_alpha    59.99999916847683
_cell_angle_beta     60.000001802058236
_cell_angle_gamma    59.99999382958948

_space_group_name_H-M_alt    "P 1"
_space_group_IT_number       1

loop_
  _space_group_symop_operation_xyz
  'x, y, z'

loop_
  _atom_site_type_symbol
  _atom_site_label
  _atom_site_symmetry_multiplicity
  _atom_site_fract_x
  _atom_site_fract_y
  _atom_site_fract_z
  _atom_site_occupancy
  Cs  Cs1       1.0  0.25000008244457683  0.25000002062591753  0.24999999528903688  1.0000
  Cs  Cs2       1.0  0.7499999583165469  0.7500000081019818  0.7499999282312153  1.0000
  V   V1        1.0  0.9999998745019311  0.9999999941864198  0.9999997950890868  1.0000
  I   I1        1.0  0.22928394221468376  0.22928419127655744  0.7707158601315713  1.0000
  I   I2        1.0  0.7707160621878142  0.7707157080987412  0.22928408097600472  1.0000
  I   I3        1.0  0.7707159893568487  0.22928412709677562  0.22928408942170403  1.0000
  I   I4        1.0  0.22928381694644065  0.7707160048225358  0.7707162130195528  1.0000
  I   I5        1.0  0.2292840098338077  0.7707158910728885  0.22928410539631452  1.0000
  I   I6        1.0  0.770716237979593  0.22928403446358184  0.7707159691185712  1.0000
