data_image0
_chemical_formula_structural       Cs2WF6
_chemical_formula_sum              "Cs2 W1 F6"
_cell_length_a       6.55746118150616
_cell_length_b       6.557460987028643
_cell_length_c       6.5574607850417514
_cell_angle_alpha    60.00000130678437
_cell_angle_beta     60.00000084925042
_cell_angle_gamma    60.00000039488301

_space_group_name_H-M_alt    "P 1"
_space_group_IT_number       1

loop_
  _space_group_symop_operation_xyz
  'x, y, z'

loop_
  _atom_site_type_symbol
  _atom_site_label
  _atom_site_symmetry_multiplicity
  _atom_site_fract_x
  _atom_site_fract_y
  _atom_site_fract_z
  _atom_site_occupancy
  Cs  Cs1       1.0  0.2500000572233705  0.2500000465037229  0.24999997204633378  1.0000
  Cs  Cs2       1.0  0.7500000070370991  0.7500000311838723  0.7500000327944102  1.0000
  W   W1        1.0  3.201657245526943e-08  0.9999999831905916  0.9999999374971187  1.0000
  F   F1        1.0  0.21932597503612644  0.21932590260646437  0.7806740391547798  1.0000
  F   F2        1.0  0.7806739854749679  0.7806741059757859  0.21932593926476576  1.0000
  F   F3        1.0  0.7806740529206955  0.21932585622081094  0.21932589322805962  1.0000
  F   F4        1.0  0.21932589704335184  0.780674120610335  0.7806741093905227  1.0000
  F   F5        1.0  0.2193259251828779  0.780674103263676  0.21932589915285117  1.0000
  F   F6        1.0  0.7806740738909425  0.21932585302263874  0.7806741806820913  1.0000
