data_image0
_chemical_formula_structural       Cs2WI6
_chemical_formula_sum              "Cs2 W1 I6"
_cell_length_a       8.451236999792147
_cell_length_b       8.451237039213579
_cell_length_c       8.451237114436793
_cell_angle_alpha    60.00000057198857
_cell_angle_beta     60.000002280558284
_cell_angle_gamma    59.99999701246211

_space_group_name_H-M_alt    "P 1"
_space_group_IT_number       1

loop_
  _space_group_symop_operation_xyz
  'x, y, z'

loop_
  _atom_site_type_symbol
  _atom_site_label
  _atom_site_symmetry_multiplicity
  _atom_site_fract_x
  _atom_site_fract_y
  _atom_site_fract_z
  _atom_site_occupancy
  Cs  Cs1       1.0  0.25000001297859076  0.24999995589344515  0.2499999895555414  1.0000
  Cs  Cs2       1.0  0.7499999977640599  0.7500000444815262  0.7499999529152689  1.0000
  W   W1        1.0  4.870854464140138e-09  5.50692225724563e-08  8.362279894411727e-08  1.0000
  I   I1        1.0  0.23178520191693525  0.23178530374919684  0.7682147529406338  1.0000
  I   I2        1.0  0.7682147152962905  0.7682146574976465  0.2317853540694244  1.0000
  I   I3        1.0  0.7682148465727772  0.231785111638506  0.23178518240378282  1.0000
  I   I4        1.0  0.2317852112472257  0.768214784394778  0.7682148099978522  1.0000
  I   I5        1.0  0.23178516888597286  0.7682148426259282  0.23178516358362322  1.0000
  I   I6        1.0  0.7682148489628637  0.23178523890368719  0.7682147489558774  1.0000
