data_image0
_chemical_formula_structural       Cs2WBr6
_chemical_formula_sum              "Cs2 W1 Br6"
_cell_length_a       7.904929983987905
_cell_length_b       7.904929548377621
_cell_length_c       7.904929634514109
_cell_angle_alpha    60.00000099608063
_cell_angle_beta     59.99999858233374
_cell_angle_gamma    59.99999731296205

_space_group_name_H-M_alt    "P 1"
_space_group_IT_number       1

loop_
  _space_group_symop_operation_xyz
  'x, y, z'

loop_
  _atom_site_type_symbol
  _atom_site_label
  _atom_site_symmetry_multiplicity
  _atom_site_fract_x
  _atom_site_fract_y
  _atom_site_fract_z
  _atom_site_occupancy
  Cs  Cs1       1.0  0.25000000065751743  0.25000006859509666  0.2499999754924216  1.0000
  Cs  Cs2       1.0  0.7499999644391084  0.7500000291601662  0.749999975365011  1.0000
  W   W1        1.0  1.9855610567521505e-07  3.0986861295607627e-08  0.9999999674556834  1.0000
  Br  Br1       1.0  0.22863199839463594  0.2286319422763748  0.7713680631468547  1.0000
  Br  Br2       1.0  0.7713679394088879  0.7713679525149331  0.22863207747607545  1.0000
  Br  Br3       1.0  0.7713680841986611  0.22863189007871856  0.2286319149920374  1.0000
  Br  Br4       1.0  0.2286319081228873  0.7713680821797451  0.771368069820931  1.0000
  Br  Br5       1.0  0.22863195255889318  0.7713679873609857  0.22863197484901565  1.0000
  Br  Br6       1.0  0.7713679599234926  0.22863200968696903  0.7713679679119536  1.0000
