data_image0
_chemical_formula_structural       Cs2ZrBr6
_chemical_formula_sum              "Cs2 Zr1 Br6"
_cell_length_a       7.9565978967274935
_cell_length_b       7.956597894830229
_cell_length_c       7.956597732584532
_cell_angle_alpha    60.000000402002044
_cell_angle_beta     60.000001302173686
_cell_angle_gamma    60.00000010185472

_space_group_name_H-M_alt    "P 1"
_space_group_IT_number       1

loop_
  _space_group_symop_operation_xyz
  'x, y, z'

loop_
  _atom_site_type_symbol
  _atom_site_label
  _atom_site_symmetry_multiplicity
  _atom_site_fract_x
  _atom_site_fract_y
  _atom_site_fract_z
  _atom_site_occupancy
  Cs  Cs1       1.0  0.24999997031042612  0.2500000399596531  0.24999996079603864  1.0000
  Cs  Cs2       1.0  0.7500000146466117  0.7499999828828512  0.7500000686990148  1.0000
  Zr  Zr1       1.0  8.486160584837351e-08  0.999999989225025  0.9999999667271408  1.0000
  Br  Br1       1.0  0.2366293464085417  0.23662928039395123  0.7633706705562027  1.0000
  Br  Br2       1.0  0.7633706269108869  0.7633706423952173  0.23662932429338435  1.0000
  Br  Br3       1.0  0.763370638954142  0.23662932921703372  0.23662933808907946  1.0000
  Br  Br4       1.0  0.23662928452223678  0.7633707213325487  0.7633706932109408  1.0000
  Br  Br5       1.0  0.23662933542657083  0.7633707241934967  0.23662926241939328  1.0000
  Br  Br6       1.0  0.763370699137034  0.23662928479546866  0.763370706467314  1.0000
