data_image0
_chemical_formula_structural       Cs2ZrI6
_chemical_formula_sum              "Cs2 Zr1 I6"
_cell_length_a       8.537742535338989
_cell_length_b       8.537742375653847
_cell_length_c       8.537742191764428
_cell_angle_alpha    59.999998952170046
_cell_angle_beta     60.00000176364889
_cell_angle_gamma    59.99999675203546

_space_group_name_H-M_alt    "P 1"
_space_group_IT_number       1

loop_
  _space_group_symop_operation_xyz
  'x, y, z'

loop_
  _atom_site_type_symbol
  _atom_site_label
  _atom_site_symmetry_multiplicity
  _atom_site_fract_x
  _atom_site_fract_y
  _atom_site_fract_z
  _atom_site_occupancy
  Cs  Cs1       1.0  0.2500003001948809  0.24999980391447205  0.24999997637183152  1.0000
  Cs  Cs2       1.0  0.7499996779152414  0.7500001705975234  0.7500001282275716  1.0000
  Zr  Zr1       1.0  0.9999999674587766  4.303524577606787e-09  0.9999998595112293  1.0000
  I   I1        1.0  0.23981622094093608  0.23981610236555578  0.7601838287058559  1.0000
  I   I2        1.0  0.7601838869918306  0.7601838965330524  0.23981610977241047  1.0000
  I   I3        1.0  0.7601839613858794  0.23981585674539044  0.2398162767716573  1.0000
  I   I4        1.0  0.23981596250133586  0.7601841952299714  0.7601838044948166  1.0000
  I   I5        1.0  0.23981596453570503  0.7601841863813696  0.2398160525619408  1.0000
  I   I6        1.0  0.7601840482603597  0.2398157895651333  0.7601839555021578  1.0000
