data_image0
_chemical_formula_structural       Cs2ZrCl6
_chemical_formula_sum              "Cs2 Zr1 Cl6"
_cell_length_a       7.638484738802525
_cell_length_b       7.63848439829498
_cell_length_c       7.638484193473918
_cell_angle_alpha    60.000000660926496
_cell_angle_beta     60.00000094964759
_cell_angle_gamma    59.999999826963396

_space_group_name_H-M_alt    "P 1"
_space_group_IT_number       1

loop_
  _space_group_symop_operation_xyz
  'x, y, z'

loop_
  _atom_site_type_symbol
  _atom_site_label
  _atom_site_symmetry_multiplicity
  _atom_site_fract_x
  _atom_site_fract_y
  _atom_site_fract_z
  _atom_site_occupancy
  Cs  Cs1       1.0  0.24999997620809314  0.24999997751054667  0.2500000204729293  1.0000
  Cs  Cs2       1.0  0.7499999538330109  0.7500000110976166  0.7499999977489914  1.0000
  Zr  Zr1       1.0  0.9999997906323328  3.8320955888650954e-07  0.9999998436935617  1.0000
  Cl  Cl1       1.0  0.23092737436333052  0.2309273216455555  0.7690726552277457  1.0000
  Cl  Cl2       1.0  0.7690725746590555  0.7690725964135678  0.2309274332895028  1.0000
  Cl  Cl3       1.0  0.7690727641543788  0.23092721072662  0.23092722440975963  1.0000
  Cl  Cl4       1.0  0.23092739154222675  0.769072676868145  0.7690727105445428  1.0000
  Cl  Cl5       1.0  0.2309274217010506  0.7690726048270417  0.23092729635969475  1.0000
  Cl  Cl6       1.0  0.7690727465790198  0.230927204201747  0.7690728417766981  1.0000
