data_image0
_chemical_formula_structural       Cs2ZrF6
_chemical_formula_sum              "Cs2 Zr1 F6"
_cell_length_a       6.727382017363452
_cell_length_b       6.727382136153818
_cell_length_c       6.727381784185658
_cell_angle_alpha    60.000002231684036
_cell_angle_beta     60.00000230365476
_cell_angle_gamma    60.00000013753293

_space_group_name_H-M_alt    "P 1"
_space_group_IT_number       1

loop_
  _space_group_symop_operation_xyz
  'x, y, z'

loop_
  _atom_site_type_symbol
  _atom_site_label
  _atom_site_symmetry_multiplicity
  _atom_site_fract_x
  _atom_site_fract_y
  _atom_site_fract_z
  _atom_site_occupancy
  Cs  Cs1       1.0  0.25000010197217304  0.25000005724548463  0.24999989645647963  1.0000
  Cs  Cs2       1.0  0.7499999556333642  0.749999878629994  0.7499999426869722  1.0000
  Zr  Zr1       1.0  0.999999977478319  1.0923222840669408e-08  5.485248773262257e-08  1.0000
  F   F1        1.0  0.21495900543728716  0.21495906033016243  0.7850409691877198  1.0000
  F   F2        1.0  0.7850409700389102  0.7850409520078744  0.21495904521875953  1.0000
  F   F3        1.0  0.7850409080481406  0.21495915667816826  0.214958994187809  1.0000
  F   F4        1.0  0.21495914079972903  0.7850409084554418  0.7850409630808982  1.0000
  F   F5        1.0  0.21495905638304974  0.7850408585558014  0.21495911382166716  1.0000
  F   F6        1.0  0.7850408897236558  0.2149591337563284  0.7850409817680821  1.0000
