data_image0
_chemical_formula_structural       Cu2AuCl6
_chemical_formula_sum              "Cu2 Au1 Cl6"
_cell_length_a       6.59530103805451
_cell_length_b       6.595301010495238
_cell_length_c       6.5953010353993315
_cell_angle_alpha    59.999999865869555
_cell_angle_beta     59.99999999659813
_cell_angle_gamma    60.0000000010133

_space_group_name_H-M_alt    "P 1"
_space_group_IT_number       1

loop_
  _space_group_symop_operation_xyz
  'x, y, z'

loop_
  _atom_site_type_symbol
  _atom_site_label
  _atom_site_symmetry_multiplicity
  _atom_site_fract_x
  _atom_site_fract_y
  _atom_site_fract_z
  _atom_site_occupancy
  Cu  Cu1       1.0  0.2500000351913124  0.25000001350409995  0.24999995624106458  1.0000
  Cu  Cu2       1.0  0.7500000003321861  0.7500000200853417  0.750000051339799  1.0000
  Au  Au1       1.0  2.776383432126888e-09  7.4279846953688e-09  0.9999999630569646  1.0000
  Cl  Cl1       1.0  0.2577339595623351  0.25773396058858516  0.7422660405715815  1.0000
  Cl  Cl2       1.0  0.7422660342971903  0.7422659931500212  0.25773396105252155  1.0000
  Cl  Cl3       1.0  0.7422660283181168  0.25773395207030303  0.25773394074233175  1.0000
  Cl  Cl4       1.0  0.25773395388663634  0.742266031380242  0.7422660533694191  1.0000
  Cl  Cl5       1.0  0.257733959496136  0.742266077825178  0.25773396688766126  1.0000
  Cl  Cl6       1.0  0.7422660133174329  0.2577339390512982  0.7422660834371121  1.0000
