data_image0
_chemical_formula_structural       Cu2AgF6
_chemical_formula_sum              "Cu2 Ag1 F6"
_cell_length_a       5.574780527707059
_cell_length_b       5.574780386410452
_cell_length_c       5.574780599110766
_cell_angle_alpha    60.00000143857766
_cell_angle_beta     60.00000041324279
_cell_angle_gamma    60.00000102691394

_space_group_name_H-M_alt    "P 1"
_space_group_IT_number       1

loop_
  _space_group_symop_operation_xyz
  'x, y, z'

loop_
  _atom_site_type_symbol
  _atom_site_label
  _atom_site_symmetry_multiplicity
  _atom_site_fract_x
  _atom_site_fract_y
  _atom_site_fract_z
  _atom_site_occupancy
  Cu  Cu1       1.0  0.24999996425861784  0.250000009347381  0.2500001114441078  1.0000
  Cu  Cu2       1.0  0.7499999012692024  0.7500000895564038  0.7499998795810588  1.0000
  Ag  Ag1       1.0  4.19284450900161e-08  0.9999999736367402  0.9999999742794814  1.0000
  F   F1        1.0  0.2571447475540826  0.2571447718439329  0.7428552240161508  1.0000
  F   F2        1.0  0.7428552678213057  0.7428551447139757  0.257144833484359  1.0000
  F   F3        1.0  0.7428552552840179  0.2571446435741331  0.25714479742005786  1.0000
  F   F4        1.0  0.25714480622337527  0.742855352073556  0.7428552459019605  1.0000
  F   F5        1.0  0.25714470363544834  0.7428553057851487  0.2571447041354433  1.0000
  F   F6        1.0  0.7428553274092139  0.25714469425641423  0.7428552607375825  1.0000
