data_image0
_chemical_formula_structural       Cu2AgI6
_chemical_formula_sum              "Cu2 Ag1 I6"
_cell_length_a       7.522298866035092
_cell_length_b       7.522298970144575
_cell_length_c       7.522299013428845
_cell_angle_alpha    60.00000038541456
_cell_angle_beta     60.00000104754032
_cell_angle_gamma    60.000000839440396

_space_group_name_H-M_alt    "P 1"
_space_group_IT_number       1

loop_
  _space_group_symop_operation_xyz
  'x, y, z'

loop_
  _atom_site_type_symbol
  _atom_site_label
  _atom_site_symmetry_multiplicity
  _atom_site_fract_x
  _atom_site_fract_y
  _atom_site_fract_z
  _atom_site_occupancy
  Cu  Cu1       1.0  0.24999994802317532  0.2500000127630676  0.24999994988999252  1.0000
  Cu  Cu2       1.0  0.7500000028461004  0.7499999764194143  0.7500000032824705  1.0000
  Ag  Ag1       1.0  0.999999954430451  0.999999947899125  3.9529545452792084e-08  1.0000
  I   I1        1.0  0.2620827687786659  0.2620827381205648  0.7379172665462129  1.0000
  I   I2        1.0  0.7379172896203227  0.7379172738560502  0.2620826493813257  1.0000
  I   I3        1.0  0.7379172353463422  0.2620827556857312  0.2620827759186545  1.0000
  I   I4        1.0  0.2620827378195382  0.7379172448938172  0.7379172920156739  1.0000
  I   I5        1.0  0.26208276482742937  0.7379172546059731  0.26208276300802913  1.0000
  I   I6        1.0  0.7379172996026169  0.2620827899336886  0.7379172665605387  1.0000
