data_image0
_chemical_formula_structural       Cu2AuI6
_chemical_formula_sum              "Cu2 Au1 I6"
_cell_length_a       7.573944978637522
_cell_length_b       7.573944901039504
_cell_length_c       7.57394504690348
_cell_angle_alpha    59.99999887372205
_cell_angle_beta     59.999999632451356
_cell_angle_gamma    60.0000004200153

_space_group_name_H-M_alt    "P 1"
_space_group_IT_number       1

loop_
  _space_group_symop_operation_xyz
  'x, y, z'

loop_
  _atom_site_type_symbol
  _atom_site_label
  _atom_site_symmetry_multiplicity
  _atom_site_fract_x
  _atom_site_fract_y
  _atom_site_fract_z
  _atom_site_occupancy
  Cu  Cu1       1.0  0.2499999661007112  0.25000009700538456  0.2499999563732828  1.0000
  Cu  Cu2       1.0  0.7499999822513783  0.7499999659890724  0.7499999738149772  1.0000
  Au  Au1       1.0  0.9999999729118048  8.085250664099969e-09  0.9999999659310479  1.0000
  I   I1        1.0  0.26441501051206934  0.26441504728466664  0.7355849703942126  1.0000
  I   I2        1.0  0.735585045238982  0.7355849267720325  0.26441503506366265  1.0000
  I   I3        1.0  0.735584937106669  0.26441507926878544  0.2644150428616667  1.0000
  I   I4        1.0  0.2644150685951646  0.735584907724314  0.7355849956760919  1.0000
  I   I5        1.0  0.26441505348061267  0.7355849037455638  0.26441507622266586  1.0000
  I   I6        1.0  0.7355849654191965  0.2644150573747333  0.7355849805353494  1.0000
