data_image0
_chemical_formula_structural       Cu2AgCl6
_chemical_formula_sum              "Cu2 Ag1 Cl6"
_cell_length_a       6.588933851970671
_cell_length_b       6.588933620155226
_cell_length_c       6.58893382288365
_cell_angle_alpha    59.99999830105481
_cell_angle_beta     59.99999957095562
_cell_angle_gamma    59.99999961465259

_space_group_name_H-M_alt    "P 1"
_space_group_IT_number       1

loop_
  _space_group_symop_operation_xyz
  'x, y, z'

loop_
  _atom_site_type_symbol
  _atom_site_label
  _atom_site_symmetry_multiplicity
  _atom_site_fract_x
  _atom_site_fract_y
  _atom_site_fract_z
  _atom_site_occupancy
  Cu  Cu1       1.0  0.25000013812473476  0.24999992273406563  0.2500000034030078  1.0000
  Cu  Cu2       1.0  0.7499999760159318  0.7500001789949498  0.7500000179209984  1.0000
  Ag  Ag1       1.0  1.587866821338035e-08  0.9999999944236284  0.9999998977162932  1.0000
  Cl  Cl1       1.0  0.2581106351647673  0.2581105732502988  0.7418893655858072  1.0000
  Cl  Cl2       1.0  0.7418892940113884  0.7418893946457804  0.2581106072125409  1.0000
  Cl  Cl3       1.0  0.741889419076267  0.2581105918740795  0.2581106000148911  1.0000
  Cl  Cl4       1.0  0.25811058265942183  0.7418894001862801  0.7418894336956782  1.0000
  Cl  Cl5       1.0  0.25811061228891763  0.7418894195996868  0.2581105527332385  1.0000
  Cl  Cl6       1.0  0.741889326074885  0.25811052599090306  0.7418895222388933  1.0000
