data_image0
_chemical_formula_structural       Cu2AgBr6
_chemical_formula_sum              "Cu2 Ag1 Br6"
_cell_length_a       6.979770138940854
_cell_length_b       6.979770102377549
_cell_length_c       6.9797701300207935
_cell_angle_alpha    60.00000009365892
_cell_angle_beta     59.99999993853822
_cell_angle_gamma    60.00000015807525

_space_group_name_H-M_alt    "P 1"
_space_group_IT_number       1

loop_
  _space_group_symop_operation_xyz
  'x, y, z'

loop_
  _atom_site_type_symbol
  _atom_site_label
  _atom_site_symmetry_multiplicity
  _atom_site_fract_x
  _atom_site_fract_y
  _atom_site_fract_z
  _atom_site_occupancy
  Cu  Cu1       1.0  0.25000000755988283  0.24999997084768485  0.2500000131722816  1.0000
  Cu  Cu2       1.0  0.7500000187343859  0.7500000037877983  0.7500000503101582  1.0000
  Ag  Ag1       1.0  2.0620629836710147e-08  1.7547066264682694e-08  3.822462954151977e-08  1.0000
  Br  Br1       1.0  0.2578784026988514  0.2578784067092602  0.7421215983940768  1.0000
  Br  Br2       1.0  0.7421215794955643  0.742121596001528  0.25787837997436114  1.0000
  Br  Br3       1.0  0.7421216054413735  0.25787841240435017  0.2578783983105076  1.0000
  Br  Br4       1.0  0.2578783940821835  0.7421215780234919  0.7421215617750012  1.0000
  Br  Br5       1.0  0.25787840672636464  0.7421216011662338  0.2578784102197826  1.0000
  Br  Br6       1.0  0.7421215707888337  0.2578784155822072  0.7421215434114705  1.0000
