data_image0
_chemical_formula_structural       Cu2BeCl6
_chemical_formula_sum              "Cu2 Be1 Cl6"
_cell_length_a       6.298870439868187
_cell_length_b       6.298870344729842
_cell_length_c       6.298870184879469
_cell_angle_alpha    60.0000001647295
_cell_angle_beta     59.999999143769266
_cell_angle_gamma    60.00000002478027

_space_group_name_H-M_alt    "P 1"
_space_group_IT_number       1

loop_
  _space_group_symop_operation_xyz
  'x, y, z'

loop_
  _atom_site_type_symbol
  _atom_site_label
  _atom_site_symmetry_multiplicity
  _atom_site_fract_x
  _atom_site_fract_y
  _atom_site_fract_z
  _atom_site_occupancy
  Cu  Cu1       1.0  0.24999996184906353  0.25000003082091266  0.25000002325635307  1.0000
  Cu  Cu2       1.0  0.7499999960785942  0.7499999038570905  0.7500000643537638  1.0000
  Be  Be1       1.0  4.034918638971781e-08  0.999999966945402  0.9999999931775326  1.0000
  Cl  Cl1       1.0  0.2472164842977762  0.24721659287046346  0.7527834521037149  1.0000
  Cl  Cl2       1.0  0.7527834459445648  0.7527834798590963  0.24721651840741626  1.0000
  Cl  Cl3       1.0  0.7527834949651279  0.24721657323838453  0.24721652938393016  1.0000
  Cl  Cl4       1.0  0.24721655825007927  0.7527834275488151  0.7527835013416067  1.0000
  Cl  Cl5       1.0  0.2472165243424787  0.7527834583321786  0.24721650810449264  1.0000
  Cl  Cl6       1.0  0.7527835088188783  0.24721653662185658  0.7527834339590285  1.0000
