data_image0
_chemical_formula_structural       Cu2BeI6
_chemical_formula_sum              "Cu2 Be1 I6"
_cell_length_a       7.419580396614213
_cell_length_b       7.41958047942163
_cell_length_c       7.419580260481947
_cell_angle_alpha    60.00000082771936
_cell_angle_beta     60.00000086144058
_cell_angle_gamma    59.999999851915696

_space_group_name_H-M_alt    "P 1"
_space_group_IT_number       1

loop_
  _space_group_symop_operation_xyz
  'x, y, z'

loop_
  _atom_site_type_symbol
  _atom_site_label
  _atom_site_symmetry_multiplicity
  _atom_site_fract_x
  _atom_site_fract_y
  _atom_site_fract_z
  _atom_site_occupancy
  Cu  Cu1       1.0  0.24999997906570248  0.24999999071991355  0.24999996136375943  1.0000
  Cu  Cu2       1.0  0.7499999883334143  0.7500000381874545  0.7500000640672373  1.0000
  Be  Be1       1.0  2.2009237937717066e-09  0.9999999933972286  0.9999999712018657  1.0000
  I   I1        1.0  0.24581914329309676  0.24581909141534267  0.7541808895168487  1.0000
  I   I2        1.0  0.7541808877574208  0.7541808912726247  0.2458190517221806  1.0000
  I   I3        1.0  0.7541808705988254  0.24581911336886308  0.2458191358434377  1.0000
  I   I4        1.0  0.24581909664387677  0.7541808693191046  0.7541809262533182  1.0000
  I   I5        1.0  0.2458191471288728  0.7541809333895978  0.24581908197672292  1.0000
  I   I6        1.0  0.7541808778529067  0.2458190955177698  0.7541809065762322  1.0000
