data_image0
_chemical_formula_structural       Cu2BeF6
_chemical_formula_sum              "Cu2 Be1 F6"
_cell_length_a       4.980030602333864
_cell_length_b       4.980029971439777
_cell_length_c       4.98003009214942
_cell_angle_alpha    60.00000228349942
_cell_angle_beta     60.0000029427264
_cell_angle_gamma    60.00000063343012

_space_group_name_H-M_alt    "P 1"
_space_group_IT_number       1

loop_
  _space_group_symop_operation_xyz
  'x, y, z'

loop_
  _atom_site_type_symbol
  _atom_site_label
  _atom_site_symmetry_multiplicity
  _atom_site_fract_x
  _atom_site_fract_y
  _atom_site_fract_z
  _atom_site_occupancy
  Cu  Cu1       1.0  0.24999991590608772  0.25000003328986486  0.25000003318459113  1.0000
  Cu  Cu2       1.0  0.7500000910932109  0.7499999670667349  0.7499998958747452  1.0000
  Be  Be1       1.0  2.8386538745837107e-08  0.9999999704882567  8.489944124959279e-08  1.0000
  F   F1        1.0  0.24032053737836964  0.2403206240471271  0.7596794035687261  1.0000
  F   F2        1.0  0.7596794659440259  0.7596793664722267  0.24032061457650433  1.0000
  F   F3        1.0  0.7596793955617773  0.24032046358701295  0.24032055583021023  1.0000
  F   F4        1.0  0.24032054295461586  0.7596795613627094  0.7596794293103583  1.0000
  F   F5        1.0  0.24032061576331523  0.7596795029730945  0.24032040576128041  1.0000
  F   F6        1.0  0.7596794359696696  0.24032050230213337  0.7596795808007186  1.0000
