data_image0
_chemical_formula_structural       Cu2BeBr6
_chemical_formula_sum              "Cu2 Be1 Br6"
_cell_length_a       6.7299449650000716
_cell_length_b       6.729944915124873
_cell_length_c       6.729944880570337
_cell_angle_alpha    59.999999709291075
_cell_angle_beta     59.99999849909576
_cell_angle_gamma    60.00000003668955

_space_group_name_H-M_alt    "P 1"
_space_group_IT_number       1

loop_
  _space_group_symop_operation_xyz
  'x, y, z'

loop_
  _atom_site_type_symbol
  _atom_site_label
  _atom_site_symmetry_multiplicity
  _atom_site_fract_x
  _atom_site_fract_y
  _atom_site_fract_z
  _atom_site_occupancy
  Cu  Cu1       1.0  0.24999999273885853  0.2500001312564274  0.25000001816605405  1.0000
  Cu  Cu2       1.0  0.7500000651053257  0.7499998860328538  0.7499998667018014  1.0000
  Be  Be1       1.0  0.9999999905201801  0.9999999872610932  2.596832625551519e-08  1.0000
  Br  Br1       1.0  0.24737103218486348  0.24737109486309894  0.7526289943561153  1.0000
  Br  Br2       1.0  0.7526288599586396  0.7526288842094613  0.2473712064395068  1.0000
  Br  Br3       1.0  0.7526289665636979  0.2473710247369265  0.24737109432490254  1.0000
  Br  Br4       1.0  0.24737109769458135  0.7526288961006319  0.752628845963041  1.0000
  Br  Br5       1.0  0.24737105257231107  0.7526289114592382  0.2473711046012841  1.0000
  Br  Br6       1.0  0.7526289416487669  0.24737117316426427  0.752628818530214  1.0000
