data_image0
_chemical_formula_structural       Cu2CBr6
_chemical_formula_sum              "Cu2 C1 Br6"
_cell_length_a       6.900753006657149
_cell_length_b       6.9007536295987055
_cell_length_c       6.900753309470062
_cell_angle_alpha    60.00000417087465
_cell_angle_beta     59.99999887979452
_cell_angle_gamma    60.000002141466965

_space_group_name_H-M_alt    "P 1"
_space_group_IT_number       1

loop_
  _space_group_symop_operation_xyz
  'x, y, z'

loop_
  _atom_site_type_symbol
  _atom_site_label
  _atom_site_symmetry_multiplicity
  _atom_site_fract_x
  _atom_site_fract_y
  _atom_site_fract_z
  _atom_site_occupancy
  Cu  Cu1       1.0  0.25000014956324385  0.24999974740604744  0.2500000477415125  1.0000
  Cu  Cu2       1.0  0.7499996683066812  0.7500003283949165  0.7500001990005656  1.0000
  C   C1        1.0  0.999999918292584  1.89903460298592e-07  1.7341337470493083e-07  1.0000
  Br  Br1       1.0  0.24072150655200983  0.24072120516971063  0.7592786699024965  1.0000
  Br  Br2       1.0  0.7592784800193334  0.7592787108993678  0.24072133614871635  1.0000
  Br  Br3       1.0  0.7592786933119879  0.24072139449733074  0.240721163909504  1.0000
  Br  Br4       1.0  0.24072158689825457  0.7592784789765712  0.7592785224381486  1.0000
  Br  Br5       1.0  0.24072133812104263  0.7592786629059125  0.24072129603510767  1.0000
  Br  Br6       1.0  0.7592786586756703  0.24072127268594826  0.759278603847649  1.0000
