data_image0
_chemical_formula_structural       Cu2CdBr6
_chemical_formula_sum              "Cu2 Cd1 Br6"
_cell_length_a       7.091452302500677
_cell_length_b       7.091452363325949
_cell_length_c       7.091452300529607
_cell_angle_alpha    59.99999989992312
_cell_angle_beta     59.99999934307319
_cell_angle_gamma    60.000000334170686

_space_group_name_H-M_alt    "P 1"
_space_group_IT_number       1

loop_
  _space_group_symop_operation_xyz
  'x, y, z'

loop_
  _atom_site_type_symbol
  _atom_site_label
  _atom_site_symmetry_multiplicity
  _atom_site_fract_x
  _atom_site_fract_y
  _atom_site_fract_z
  _atom_site_occupancy
  Cu  Cu1       1.0  0.24999996728940857  0.2500000544051176  0.24999998288386407  1.0000
  Cu  Cu2       1.0  0.749999867033373  0.7500001114031929  0.7500001217087502  1.0000
  Cd  Cd1       1.0  0.9999999790466041  0.9999999602773444  0.999999986623426  1.0000
  Br  Br1       1.0  0.26470814054642877  0.2647079971065715  0.7352918457812478  1.0000
  Br  Br2       1.0  0.7352920618905782  0.7352919631801751  0.2647078743331321  1.0000
  Br  Br3       1.0  0.7352919080973928  0.26470811688037776  0.2647080696298862  1.0000
  Br  Br4       1.0  0.26470791655436726  0.7352920437467166  0.7352920325178084  1.0000
  Br  Br5       1.0  0.2647082070621495  0.7352918460454768  0.2647080607667234  1.0000
  Br  Br6       1.0  0.7352919586182923  0.26470790699263136  0.7352920295363744  1.0000
