data_image0
_chemical_formula_structural       Cu2CrCl6
_chemical_formula_sum              "Cu2 Cr1 Cl6"
_cell_length_a       6.546004380299002
_cell_length_b       6.546004410002832
_cell_length_c       6.54600444953999
_cell_angle_alpha    60.000000022089495
_cell_angle_beta     59.999999900030566
_cell_angle_gamma    60.000000007629055

_space_group_name_H-M_alt    "P 1"
_space_group_IT_number       1

loop_
  _space_group_symop_operation_xyz
  'x, y, z'

loop_
  _atom_site_type_symbol
  _atom_site_label
  _atom_site_symmetry_multiplicity
  _atom_site_fract_x
  _atom_site_fract_y
  _atom_site_fract_z
  _atom_site_occupancy
  Cu  Cu1       1.0  0.25000000436371744  0.24999998829457418  0.25000000230596536  1.0000
  Cu  Cu2       1.0  0.7500000006179469  0.7500000023033389  0.7500000005552885  1.0000
  Cr  Cr1       1.0  4.044612385305707e-09  3.7419616367429185e-09  0.9999999945790635  1.0000
  Cl  Cl1       1.0  0.24656356840888186  0.24656356235049967  0.7534364325144788  1.0000
  Cl  Cl2       1.0  0.75343643252817  0.7534364245054518  0.24656356812946417  1.0000
  Cl  Cl3       1.0  0.7534364321136491  0.24656357282310715  0.24656356920257144  1.0000
  Cl  Cl4       1.0  0.24656356663141274  0.7534364364846141  0.7534364365879761  1.0000
  Cl  Cl5       1.0  0.24656356499661009  0.7534364375593328  0.2465635611196421  1.0000
  Cl  Cl6       1.0  0.7534364236812428  0.24656357549035016  0.7534364325570346  1.0000
