data_image0
_chemical_formula_structural       Cu2CI6
_chemical_formula_sum              "Cu2 C1 I6"
_cell_length_a       7.353750982833981
_cell_length_b       7.353751038561122
_cell_length_c       7.353751117650814
_cell_angle_alpha    59.99999900923566
_cell_angle_beta     59.99999855152153
_cell_angle_gamma    59.99999926242802

_space_group_name_H-M_alt    "P 1"
_space_group_IT_number       1

loop_
  _space_group_symop_operation_xyz
  'x, y, z'

loop_
  _atom_site_type_symbol
  _atom_site_label
  _atom_site_symmetry_multiplicity
  _atom_site_fract_x
  _atom_site_fract_y
  _atom_site_fract_z
  _atom_site_occupancy
  Cu  Cu1       1.0  0.2500000902870513  0.2500000340113674  0.24999992298122836  1.0000
  Cu  Cu2       1.0  0.7499999787377001  0.7500000504045442  0.7500001230401212  1.0000
  C   C1        1.0  2.3715221832264454e-07  0.9999999150610491  1.1291254432418605e-07  1.0000
  I   I1        1.0  0.2546688764271814  0.25466895452116856  0.7453310575252216  1.0000
  I   I2        1.0  0.7453310702021368  0.745330988329828  0.25466885258581196  1.0000
  I   I3        1.0  0.7453309629693378  0.2546689248266214  0.2546690144807417  1.0000
  I   I4        1.0  0.25466893986798167  0.7453310363445405  0.7453310429913795  1.0000
  I   I5        1.0  0.2546689585674858  0.7453311199233544  0.25466883287060676  1.0000
  I   I6        1.0  0.7453308895161794  0.25466896782349785  0.7453310486259246  1.0000
