data_image0
_chemical_formula_structural       Cu2CBr6
_chemical_formula_sum              "Cu2 C1 Br6"
_cell_length_a       6.899024653294321
_cell_length_b       6.899024446822614
_cell_length_c       6.899024404373586
_cell_angle_alpha    59.999997215609376
_cell_angle_beta     59.99999956077819
_cell_angle_gamma    59.999996587708544

_space_group_name_H-M_alt    "P 1"
_space_group_IT_number       1

loop_
  _space_group_symop_operation_xyz
  'x, y, z'

loop_
  _atom_site_type_symbol
  _atom_site_label
  _atom_site_symmetry_multiplicity
  _atom_site_fract_x
  _atom_site_fract_y
  _atom_site_fract_z
  _atom_site_occupancy
  Cu  Cu1       1.0  0.25000003461267656  0.24999977939447468  0.25000001147524165  1.0000
  Cu  Cu2       1.0  0.7499996334885399  0.7500004228572823  0.7500000099121813  1.0000
  C   C1        1.0  2.1915821691680366e-07  0.9999998295766093  0.9999999263502577  1.0000
  Br  Br1       1.0  0.24086631742218148  0.2408662384030827  0.7591337376833472  1.0000
  Br  Br2       1.0  0.7591336710375731  0.7591338111777138  0.24086630277338833  1.0000
  Br  Br3       1.0  0.7591337328314706  0.2408661518397641  0.2408664089429519  1.0000
  Br  Br4       1.0  0.24086627378683367  0.7591338231808002  0.7591336365229413  1.0000
  Br  Br5       1.0  0.24086637118944665  0.759133782505342  0.24086625027999245  1.0000
  Br  Br6       1.0  0.7591337486671945  0.24086616411132403  0.7591337005873899  1.0000
