data_image0
_chemical_formula_structural       Cu2CrI6
_chemical_formula_sum              "Cu2 Cr1 I6"
_cell_length_a       7.567433925162117
_cell_length_b       7.567433916615079
_cell_length_c       7.567433861086372
_cell_angle_alpha    60.000000224172005
_cell_angle_beta     59.99999999623763
_cell_angle_gamma    59.99999954151763

_space_group_name_H-M_alt    "P 1"
_space_group_IT_number       1

loop_
  _space_group_symop_operation_xyz
  'x, y, z'

loop_
  _atom_site_type_symbol
  _atom_site_label
  _atom_site_symmetry_multiplicity
  _atom_site_fract_x
  _atom_site_fract_y
  _atom_site_fract_z
  _atom_site_occupancy
  Cu  Cu1       1.0  0.24999998747528784  0.2499999939608422  0.2500000139245773  1.0000
  Cu  Cu2       1.0  0.7500000005570134  0.750000009396031  0.7499999878081741  1.0000
  Cr  Cr1       1.0  4.785767975226199e-08  0.9999999708680536  0.9999999734582583  1.0000
  I   I1        1.0  0.24738649948950261  0.24738649793297027  0.752613501901244  1.0000
  I   I2        1.0  0.7526134881884387  0.7526134973316956  0.24738651330495456  1.0000
  I   I3        1.0  0.7526135092462474  0.2473864913210066  0.2473864984082064  1.0000
  I   I4        1.0  0.24738647329868857  0.7526135330756053  0.7526135259417523  1.0000
  I   I5        1.0  0.24738648486146414  0.7526135164555817  0.24738648318885553  1.0000
  I   I6        1.0  0.7526135086423213  0.2473864933750571  0.7526134993567518  1.0000
