data_image0
_chemical_formula_structural       Cu2CrCl6
_chemical_formula_sum              "Cu2 Cr1 Cl6"
_cell_length_a       6.547142248271423
_cell_length_b       6.547142082408588
_cell_length_c       6.547142351200914
_cell_angle_alpha    59.999998132787915
_cell_angle_beta     59.99999884071649
_cell_angle_gamma    59.99999729765641

_space_group_name_H-M_alt    "P 1"
_space_group_IT_number       1

loop_
  _space_group_symop_operation_xyz
  'x, y, z'

loop_
  _atom_site_type_symbol
  _atom_site_label
  _atom_site_symmetry_multiplicity
  _atom_site_fract_x
  _atom_site_fract_y
  _atom_site_fract_z
  _atom_site_occupancy
  Cu  Cu1       1.0  0.2499999621024198  0.24999999600319425  0.24999995835414315  1.0000
  Cu  Cu2       1.0  0.7500000012668339  0.7499999711736787  0.7500000657998704  1.0000
  Cr  Cr1       1.0  2.189459014340136e-08  0.9999999925173768  0.9999999423903468  1.0000
  Cl  Cl1       1.0  0.24658764481865061  0.24658760025227816  0.7534123537576779  1.0000
  Cl  Cl2       1.0  0.7534123581705322  0.7534123856311521  0.24658760304849398  1.0000
  Cl  Cl3       1.0  0.7534123729911777  0.24658764122443888  0.24658765782386974  1.0000
  Cl  Cl4       1.0  0.2465876133393588  0.7534124475450579  0.7534123505663952  1.0000
  Cl  Cl5       1.0  0.24658757093041875  0.7534124099622408  0.24658770858612206  1.0000
  Cl  Cl6       1.0  0.7534124665130206  0.24658755721463096  0.7534123625369149  1.0000
