data_image0
_chemical_formula_structural       Cu2CrBr6
_chemical_formula_sum              "Cu2 Cr1 Br6"
_cell_length_a       6.96319363786176
_cell_length_b       6.9631938265092606
_cell_length_c       6.963193453747294
_cell_angle_alpha    60.00000101015574
_cell_angle_beta     60.00000153778531
_cell_angle_gamma    60.00000013435201

_space_group_name_H-M_alt    "P 1"
_space_group_IT_number       1

loop_
  _space_group_symop_operation_xyz
  'x, y, z'

loop_
  _atom_site_type_symbol
  _atom_site_label
  _atom_site_symmetry_multiplicity
  _atom_site_fract_x
  _atom_site_fract_y
  _atom_site_fract_z
  _atom_site_occupancy
  Cu  Cu1       1.0  0.25000008007154784  0.2500000493466061  0.25000000305329295  1.0000
  Cu  Cu2       1.0  0.7500000428779456  0.7500001480398227  0.7499999082071729  1.0000
  Cr  Cr1       1.0  0.9999999687109036  0.999999959545674  2.8408897809954556e-09  1.0000
  Br  Br1       1.0  0.2459872360840584  0.24598728770355618  0.7540126928668129  1.0000
  Br  Br2       1.0  0.754012722163013  0.7540126476091951  0.2459872522663692  1.0000
  Br  Br3       1.0  0.7540126921994986  0.24598727906215576  0.24598723574523756  1.0000
  Br  Br4       1.0  0.2459871977873996  0.7540127864079935  0.7540128321044572  1.0000
  Br  Br5       1.0  0.24598727763569503  0.7540126759756512  0.24598720750904188  1.0000
  Br  Br6       1.0  0.7540127749012562  0.24598715556295456  0.7540128888507867  1.0000
