data_image0
_chemical_formula_structural       Cu2CoF6
_chemical_formula_sum              "Cu2 Co1 F6"
_cell_length_a       5.122584357448566
_cell_length_b       5.122584348626785
_cell_length_c       5.1225844057781025
_cell_angle_alpha    59.999998963181646
_cell_angle_beta     59.999999737978
_cell_angle_gamma    59.99999844476163

_space_group_name_H-M_alt    "P 1"
_space_group_IT_number       1

loop_
  _space_group_symop_operation_xyz
  'x, y, z'

loop_
  _atom_site_type_symbol
  _atom_site_label
  _atom_site_symmetry_multiplicity
  _atom_site_fract_x
  _atom_site_fract_y
  _atom_site_fract_z
  _atom_site_occupancy
  Cu  Cu1       1.0  0.24999997922568248  0.24999994423969019  0.25000008924406336  1.0000
  Cu  Cu2       1.0  0.7499999958938243  0.7500000502885195  0.749999948290091  1.0000
  Co  Co1       1.0  0.9999999915069381  1.1954365089861017e-08  3.536000119646783e-08  1.0000
  F   F1        1.0  0.24751460555774804  0.24751464697161965  0.7524853675476354  1.0000
  F   F2        1.0  0.7524853471571278  0.7524853403839715  0.24751463206737379  1.0000
  F   F3        1.0  0.7524853476215451  0.24751467927150755  0.24751458694558154  1.0000
  F   F4        1.0  0.24751472879737701  0.7524853224293206  0.7524853280276689  1.0000
  F   F5        1.0  0.24751464356002445  0.7524853406926597  0.24751456843565342  1.0000
  F   F6        1.0  0.7524853475884513  0.24751468013515343  0.7524854362213768  1.0000
