data_image0
_chemical_formula_structural       Cu2CdI6
_chemical_formula_sum              "Cu2 Cd1 I6"
_cell_length_a       7.784532562834947
_cell_length_b       7.784532804353522
_cell_length_c       7.784532654950744
_cell_angle_alpha    59.99999961733171
_cell_angle_beta     60.00000112333279
_cell_angle_gamma    60.0000002442645

_space_group_name_H-M_alt    "P 1"
_space_group_IT_number       1

loop_
  _space_group_symop_operation_xyz
  'x, y, z'

loop_
  _atom_site_type_symbol
  _atom_site_label
  _atom_site_symmetry_multiplicity
  _atom_site_fract_x
  _atom_site_fract_y
  _atom_site_fract_z
  _atom_site_occupancy
  Cu  Cu1       1.0  0.24999994633559863  0.25000006139526426  0.25000003722088887  1.0000
  Cu  Cu2       1.0  0.7500000077051082  0.749999971789544  0.7499999870673945  1.0000
  Cd  Cd1       1.0  0.9999999971078871  2.2026278192106835e-08  0.9999999711639377  1.0000
  I   I1        1.0  0.26685805028063597  0.2668580800111518  0.7331419069597638  1.0000
  I   I2        1.0  0.7331419418330055  0.7331419012545737  0.2668580882828326  1.0000
  I   I3        1.0  0.7331419186050115  0.26685810466163656  0.26685803932023494  1.0000
  I   I4        1.0  0.26685809321089643  0.7331419064968943  0.7331419426862135  1.0000
  I   I5        1.0  0.26685806412782503  0.7331419145445166  0.2668580642550552  1.0000
  I   I6        1.0  0.7331419859409768  0.2668580352550967  0.7331419627039704  1.0000
