data_image0
_chemical_formula_structural       Cu2CrF6
_chemical_formula_sum              "Cu2 Cr1 F6"
_cell_length_a       5.268671687987213
_cell_length_b       5.2686718911496335
_cell_length_c       5.268671964222578
_cell_angle_alpha    59.999998480774416
_cell_angle_beta     60.000001023457315
_cell_angle_gamma    59.99999943920925

_space_group_name_H-M_alt    "P 1"
_space_group_IT_number       1

loop_
  _space_group_symop_operation_xyz
  'x, y, z'

loop_
  _atom_site_type_symbol
  _atom_site_label
  _atom_site_symmetry_multiplicity
  _atom_site_fract_x
  _atom_site_fract_y
  _atom_site_fract_z
  _atom_site_occupancy
  Cu  Cu1       1.0  0.25000011604864236  0.24999981756927372  0.25000006826351945  1.0000
  Cu  Cu2       1.0  0.7500000084991852  0.7500000245544877  0.7499999767079056  1.0000
  Cr  Cr1       1.0  0.9999999815363032  4.8816179788789406e-08  0.999999929781424  1.0000
  F   F1        1.0  0.2506661686852889  0.2506661355560703  0.7493338635795002  1.0000
  F   F2        1.0  0.7493338381750594  0.7493339018324056  0.2506661407052919  1.0000
  F   F3        1.0  0.7493338658677379  0.25066611446019366  0.2506661489613559  1.0000
  F   F4        1.0  0.2506660324288007  0.749333946174082  0.7493339131665308  1.0000
  F   F5        1.0  0.2506660746794355  0.7493339224967003  0.25066611665742305  1.0000
  F   F6        1.0  0.7493338821721408  0.2506660939705576  0.7493338756420754  1.0000
