data_image0
_chemical_formula_structural       Cu2CoI6
_chemical_formula_sum              "Cu2 Co1 I6"
_cell_length_a       7.380844397323053
_cell_length_b       7.380844677837001
_cell_length_c       7.380844475313257
_cell_angle_alpha    60.00000143358555
_cell_angle_beta     60.00000055953558
_cell_angle_gamma    59.999999852596325

_space_group_name_H-M_alt    "P 1"
_space_group_IT_number       1

loop_
  _space_group_symop_operation_xyz
  'x, y, z'

loop_
  _atom_site_type_symbol
  _atom_site_label
  _atom_site_symmetry_multiplicity
  _atom_site_fract_x
  _atom_site_fract_y
  _atom_site_fract_z
  _atom_site_occupancy
  Cu  Cu1       1.0  0.24999982051110392  0.2499999714625283  0.25000022085001183  1.0000
  Cu  Cu2       1.0  0.7500002009352548  0.749999972465029  0.7499998925791137  1.0000
  Co  Co1       1.0  1.628262123842907e-11  0.9999999717909489  5.2032422588002716e-08  1.0000
  I   I1        1.0  0.2500053064476937  0.2500053656325942  0.7499946469832438  1.0000
  I   I2        1.0  0.7499946673518401  0.7499946977685923  0.25000536820898817  1.0000
  I   I3        1.0  0.7499947045384133  0.2500053327801639  0.2500053382996079  1.0000
  I   I4        1.0  0.25000521019139693  0.7499947107087521  0.7499946283178168  1.0000
  I   I5        1.0  0.2500052391083145  0.7499946430712161  0.25000535887206754  1.0000
  I   I6        1.0  0.7499948463695507  0.2500053340434586  0.7499944932349594  1.0000
