data_image0
_chemical_formula_structural       Cu2CaBr6
_chemical_formula_sum              "Cu2 Ca1 Br6"
_cell_length_a       7.297764710136074
_cell_length_b       7.297764664494043
_cell_length_c       7.297764584794849
_cell_angle_alpha    60.00000014791749
_cell_angle_beta     60.00000085738422
_cell_angle_gamma    60.00000051891647

_space_group_name_H-M_alt    "P 1"
_space_group_IT_number       1

loop_
  _space_group_symop_operation_xyz
  'x, y, z'

loop_
  _atom_site_type_symbol
  _atom_site_label
  _atom_site_symmetry_multiplicity
  _atom_site_fract_x
  _atom_site_fract_y
  _atom_site_fract_z
  _atom_site_occupancy
  Cu  Cu1       1.0  0.25000000780014836  0.24999998491846936  0.25000010485646046  1.0000
  Cu  Cu2       1.0  0.7500001133811791  0.7499999933550816  0.7499998666000434  1.0000
  Ca  Ca1       1.0  7.059597873800355e-08  0.9999999211224103  5.511088352437709e-09  1.0000
  Br  Br1       1.0  0.2667144313538457  0.26671452551254804  0.7332854785839673  1.0000
  Br  Br2       1.0  0.733285611353108  0.7332854745782085  0.2667144677600982  1.0000
  Br  Br3       1.0  0.7332854498095291  0.26671445799015125  0.2667145356600064  1.0000
  Br  Br4       1.0  0.2667144337110155  0.7332855924480023  0.7332855103228911  1.0000
  Br  Br5       1.0  0.2667143956213955  0.7332855554866894  0.2667145259364857  1.0000
  Br  Br6       1.0  0.7332854920865317  0.2667144966297106  0.7332854992999233  1.0000
