data_image0
_chemical_formula_structural       Cu2CoCl6
_chemical_formula_sum              "Cu2 Co1 Cl6"
_cell_length_a       6.477705132555511
_cell_length_b       6.47770519808888
_cell_length_c       6.477705194609442
_cell_angle_alpha    59.99999999063993
_cell_angle_beta     59.99999975524926
_cell_angle_gamma    60.00000025487425

_space_group_name_H-M_alt    "P 1"
_space_group_IT_number       1

loop_
  _space_group_symop_operation_xyz
  'x, y, z'

loop_
  _atom_site_type_symbol
  _atom_site_label
  _atom_site_symmetry_multiplicity
  _atom_site_fract_x
  _atom_site_fract_y
  _atom_site_fract_z
  _atom_site_occupancy
  Cu  Cu1       1.0  0.2499999871112453  0.24999999456067337  0.2500000235589794  1.0000
  Cu  Cu2       1.0  0.7500000067260968  0.7500000025890996  0.7499999659706589  1.0000
  Co  Co1       1.0  0.9999999995860267  0.9999999905464603  0.999999995671217  1.0000
  Cl  Cl1       1.0  0.24517349444051345  0.2451735008984538  0.7548265063336027  1.0000
  Cl  Cl2       1.0  0.7548265118748644  0.7548264962513193  0.24517351709468885  1.0000
  Cl  Cl3       1.0  0.754826500111866  0.24517349614267242  0.24517349268813118  1.0000
  Cl  Cl4       1.0  0.2451734980104443  0.7548265255863038  0.7548264963032307  1.0000
  Cl  Cl5       1.0  0.24517350153908218  0.7548265031934766  0.2451734911542798  1.0000
  Cl  Cl6       1.0  0.7548265031018506  0.2451734882841726  0.7548265097034343  1.0000
