data_image0
_chemical_formula_structural       Cu2CdF6
_chemical_formula_sum              "Cu2 Cd1 F6"
_cell_length_a       5.630332456983622
_cell_length_b       5.630332641781691
_cell_length_c       5.630332387542216
_cell_angle_alpha    59.999999856950836
_cell_angle_beta     59.999999953712745
_cell_angle_gamma    59.99999938821524

_space_group_name_H-M_alt    "P 1"
_space_group_IT_number       1

loop_
  _space_group_symop_operation_xyz
  'x, y, z'

loop_
  _atom_site_type_symbol
  _atom_site_label
  _atom_site_symmetry_multiplicity
  _atom_site_fract_x
  _atom_site_fract_y
  _atom_site_fract_z
  _atom_site_occupancy
  Cu  Cu1       1.0  0.25000001458180404  0.24999991106692546  0.24999999348100685  1.0000
  Cu  Cu2       1.0  0.750000007675821  0.7499999398506673  0.7499999608683495  1.0000
  Cd  Cd1       1.0  0.9999999821429711  4.350524339229811e-09  1.424970057017269e-09  1.0000
  F   F1        1.0  0.26550243135165613  0.2655024097006682  0.7344975259839677  1.0000
  F   F2        1.0  0.7344975381807125  0.7344976609183883  0.26550237862306975  1.0000
  F   F3        1.0  0.7344976746626368  0.26550236007584105  0.2655024344659835  1.0000
  F   F4        1.0  0.26550238127587183  0.734497660512185  0.7344976206824366  1.0000
  F   F5        1.0  0.2655023681547038  0.7344976140277139  0.2655024423439682  1.0000
  F   F6        1.0  0.7344975929254274  0.265502469642912  0.7344976286923405  1.0000
