data_image0
_chemical_formula_structural       Cu2CrBr6
_chemical_formula_sum              "Cu2 Cr1 Br6"
_cell_length_a       6.9595290277627075
_cell_length_b       6.95952908773788
_cell_length_c       6.9595290237334275
_cell_angle_alpha    60.000000161424964
_cell_angle_beta     60.00000018885091
_cell_angle_gamma    60.000000179187296

_space_group_name_H-M_alt    "P 1"
_space_group_IT_number       1

loop_
  _space_group_symop_operation_xyz
  'x, y, z'

loop_
  _atom_site_type_symbol
  _atom_site_label
  _atom_site_symmetry_multiplicity
  _atom_site_fract_x
  _atom_site_fract_y
  _atom_site_fract_z
  _atom_site_occupancy
  Cu  Cu1       1.0  0.25000000456022065  0.24999999695983574  0.25000000189633115  1.0000
  Cu  Cu2       1.0  0.7499999966864334  0.7500000119972269  0.7499999950059748  1.0000
  Cr  Cr1       1.0  0.9999999843802685  7.039239905395324e-09  1.4164880633207292e-09  1.0000
  Br  Br1       1.0  0.24604132666308864  0.24604132969973033  0.7539586727690419  1.0000
  Br  Br2       1.0  0.7539586736116488  0.7539586722180928  0.2460413209544476  1.0000
  Br  Br3       1.0  0.7539586678219018  0.24604133335838116  0.24604131731735965  1.0000
  Br  Br4       1.0  0.24604133196687772  0.7539586650398219  0.7539586812826766  1.0000
  Br  Br5       1.0  0.2460413329614684  0.753958664427928  0.24604131657637615  1.0000
  Br  Br6       1.0  0.7539586814751261  0.24604131989179526  0.7539586932340234  1.0000
