data_image0
_chemical_formula_structural       Cu2CoBr6
_chemical_formula_sum              "Cu2 Co1 Br6"
_cell_length_a       6.868750488180482
_cell_length_b       6.868750613599989
_cell_length_c       6.8687508691498955
_cell_angle_alpha    59.999998828652366
_cell_angle_beta     59.99999969571017
_cell_angle_gamma    59.999999919728026

_space_group_name_H-M_alt    "P 1"
_space_group_IT_number       1

loop_
  _space_group_symop_operation_xyz
  'x, y, z'

loop_
  _atom_site_type_symbol
  _atom_site_label
  _atom_site_symmetry_multiplicity
  _atom_site_fract_x
  _atom_site_fract_y
  _atom_site_fract_z
  _atom_site_occupancy
  Cu  Cu1       1.0  0.250000007341328  0.2500000758572116  0.2500000029586452  1.0000
  Cu  Cu2       1.0  0.7500000024162377  0.7499999333654291  0.7500001031805538  1.0000
  Co  Co1       1.0  2.540284483772467e-08  1.961374664218072e-08  7.357904454238659e-08  1.0000
  Br  Br1       1.0  0.2480249850997044  0.24802502245956334  0.7519749760302721  1.0000
  Br  Br2       1.0  0.7519749614901683  0.7519749493186517  0.24802504356331925  1.0000
  Br  Br3       1.0  0.7519749552647427  0.2480250537279615  0.24802500156157217  1.0000
  Br  Br4       1.0  0.24802509280253504  0.7519748859550317  0.751974906179883  1.0000
  Br  Br5       1.0  0.24802505802063135  0.751974966985257  0.24802496320247644  1.0000
  Br  Br6       1.0  0.7519749143274969  0.24802509394635416  0.7519749305094565  1.0000
