data_image0
_chemical_formula_structural       Cu2CdCl6
_chemical_formula_sum              "Cu2 Cd1 Cl6"
_cell_length_a       6.595425710120142
_cell_length_b       6.5954257263905
_cell_length_c       6.595425786453506
_cell_angle_alpha    59.99999896906496
_cell_angle_beta     60.000000597478284
_cell_angle_gamma    60.000000237580956

_space_group_name_H-M_alt    "P 1"
_space_group_IT_number       1

loop_
  _space_group_symop_operation_xyz
  'x, y, z'

loop_
  _atom_site_type_symbol
  _atom_site_label
  _atom_site_symmetry_multiplicity
  _atom_site_fract_x
  _atom_site_fract_y
  _atom_site_fract_z
  _atom_site_occupancy
  Cu  Cu1       1.0  0.24999995406676817  0.24999996499226138  0.2500000434872133  1.0000
  Cu  Cu2       1.0  0.7499999231551621  0.7500000955285808  0.7499999663518606  1.0000
  Cd  Cd1       1.0  0.9999999624906382  3.899618169258156e-08  4.7775064407122975e-08  1.0000
  Cl  Cl1       1.0  0.2639448486270765  0.2639448249917144  0.7360551672607093  1.0000
  Cl  Cl2       1.0  0.7360551951476464  0.7360551928190237  0.26394484433751997  1.0000
  Cl  Cl3       1.0  0.736055176812581  0.2639447642471543  0.2639448253794169  1.0000
  Cl  Cl4       1.0  0.26394496208883217  0.7360551310041552  0.7360550589283655  1.0000
  Cl  Cl5       1.0  0.2639447748570917  0.7360552165076245  0.26394480322284  1.0000
  Cl  Cl6       1.0  0.7360552006562255  0.2639447697347748  0.7360552461606424  1.0000
