data_image0
_chemical_formula_structural       Cu2CF6
_chemical_formula_sum              "Cu2 C1 F6"
_cell_length_a       4.90770419807158
_cell_length_b       4.907703873102068
_cell_length_c       4.907704081399633
_cell_angle_alpha    60.00000009837931
_cell_angle_beta     60.000000391482324
_cell_angle_gamma    60.000000488470995

_space_group_name_H-M_alt    "P 1"
_space_group_IT_number       1

loop_
  _space_group_symop_operation_xyz
  'x, y, z'

loop_
  _atom_site_type_symbol
  _atom_site_label
  _atom_site_symmetry_multiplicity
  _atom_site_fract_x
  _atom_site_fract_y
  _atom_site_fract_z
  _atom_site_occupancy
  Cu  Cu1       1.0  0.250000017640338  0.24999996949359402  0.24999998800670292  1.0000
  Cu  Cu2       1.0  0.7499999734221428  0.7500000058074568  0.7500000080841377  1.0000
  C   C1        1.0  0.9999999741433316  0.9999999575755517  5.2479071909032995e-08  1.0000
  F   F1        1.0  0.22469114980493196  0.22469124953649688  0.7753087754356986  1.0000
  F   F2        1.0  0.7753088942309068  0.7753087856578936  0.2246911682970191  1.0000
  F   F3        1.0  0.7753087918554662  0.22469116127210859  0.22469126238914483  1.0000
  F   F4        1.0  0.22469114480642266  0.7753088290022774  0.7753088226941554  1.0000
  F   F5        1.0  0.22469115776590223  0.7753087614050149  0.22469122205913347  1.0000
  F   F6        1.0  0.7753089143856893  0.22469123885159503  0.7753087210093722  1.0000
