data_image0
_chemical_formula_structural       Cu2CoI6
_chemical_formula_sum              "Cu2 Co1 I6"
_cell_length_a       7.38346620571646
_cell_length_b       7.3834661376894815
_cell_length_c       7.3834661237855705
_cell_angle_alpha    60.0000000974672
_cell_angle_beta     59.99999968911423
_cell_angle_gamma    59.99999977867132

_space_group_name_H-M_alt    "P 1"
_space_group_IT_number       1

loop_
  _space_group_symop_operation_xyz
  'x, y, z'

loop_
  _atom_site_type_symbol
  _atom_site_label
  _atom_site_symmetry_multiplicity
  _atom_site_fract_x
  _atom_site_fract_y
  _atom_site_fract_z
  _atom_site_occupancy
  Cu  Cu1       1.0  0.2500000440152608  0.2499999491503982  0.2500000330970429  1.0000
  Cu  Cu2       1.0  0.7499998807102956  0.7500001792045603  0.7500000035527153  1.0000
  Co  Co1       1.0  0.9999999842498534  3.3175336581075056e-08  0.9999999872242727  1.0000
  I   I1        1.0  0.24991238563042334  0.2499122516284914  0.7500876498475012  1.0000
  I   I2        1.0  0.7500876381928481  0.7500876826507478  0.24991233542170488  1.0000
  I   I3        1.0  0.7500876600029701  0.2499122836900011  0.2499123483681876  1.0000
  I   I4        1.0  0.24991232756599355  0.7500876655181397  0.7500876732968934  1.0000
  I   I5        1.0  0.24991238739750632  0.7500876839425419  0.24991230891037644  1.0000
  I   I6        1.0  0.7500876919835225  0.2499122619480653  0.7500876630899282  1.0000
