data_image0
_chemical_formula_structural       Cu2CoF6
_chemical_formula_sum              "Cu2 Co1 F6"
_cell_length_a       5.122203876805591
_cell_length_b       5.12220391675207
_cell_length_c       5.122203900395503
_cell_angle_alpha    59.999998549989584
_cell_angle_beta     59.999999358345406
_cell_angle_gamma    59.999999359274

_space_group_name_H-M_alt    "P 1"
_space_group_IT_number       1

loop_
  _space_group_symop_operation_xyz
  'x, y, z'

loop_
  _atom_site_type_symbol
  _atom_site_label
  _atom_site_symmetry_multiplicity
  _atom_site_fract_x
  _atom_site_fract_y
  _atom_site_fract_z
  _atom_site_occupancy
  Cu  Cu1       1.0  0.2500000653980268  0.2499999226716268  0.24999999230146705  1.0000
  Cu  Cu2       1.0  0.7499999923689183  0.7500000142930938  0.7500000201032663  1.0000
  Co  Co1       1.0  2.3043103534480347e-08  5.2603110467061306e-08  1.7497591810472632e-07  1.0000
  F   F1        1.0  0.24749552949051348  0.24749560725395878  0.7525043418250542  1.0000
  F   F2        1.0  0.7525043428765056  0.7525043584033707  0.24749564350996747  1.0000
  F   F3        1.0  0.7525044683183879  0.24749558290370038  0.24749564135106092  1.0000
  F   F4        1.0  0.24749568096472613  0.7525043229773636  0.752504245175469  1.0000
  F   F5        1.0  0.247495610456747  0.7525044337646949  0.24749559587905973  1.0000
  F   F6        1.0  0.7525042775965534  0.24749569448407657  0.7525043510764992  1.0000
