data_image0
_chemical_formula_structural       Cu2CCl6
_chemical_formula_sum              "Cu2 C1 Cl6"
_cell_length_a       6.493252351541269
_cell_length_b       6.493252628193438
_cell_length_c       6.493252857186676
_cell_angle_alpha    59.999997859849024
_cell_angle_beta     59.999996479509306
_cell_angle_gamma    59.99999655035036

_space_group_name_H-M_alt    "P 1"
_space_group_IT_number       1

loop_
  _space_group_symop_operation_xyz
  'x, y, z'

loop_
  _atom_site_type_symbol
  _atom_site_label
  _atom_site_symmetry_multiplicity
  _atom_site_fract_x
  _atom_site_fract_y
  _atom_site_fract_z
  _atom_site_occupancy
  Cu  Cu1       1.0  0.25000023460794796  0.24999988718802962  0.24999992491432582  1.0000
  Cu  Cu2       1.0  0.7499998672605597  0.7499998879058182  0.7500002015185113  1.0000
  C   C1        1.0  0.9999988374324987  1.2203590610574772e-06  8.119770638972196e-07  1.0000
  Cl  Cl1       1.0  0.2400809459647034  0.2400807998448479  0.7599191132679578  1.0000
  Cl  Cl2       1.0  0.7599190388373763  0.7599191770703594  0.2400808229416381  1.0000
  Cl  Cl3       1.0  0.7599195510608985  0.24008043623817035  0.24008033111252366  1.0000
  Cl  Cl4       1.0  0.24008136152858958  0.7599187579119486  0.7599186609118638  1.0000
  Cl  Cl5       1.0  0.2400810192685725  0.7599190899892725  0.24008083984122852  1.0000
  Cl  Cl6       1.0  0.7599191412470989  0.24008074923472328  0.7599193006658995  1.0000
