data_image0
_chemical_formula_structural       Cu2CrF6
_chemical_formula_sum              "Cu2 Cr1 F6"
_cell_length_a       5.269743870588457
_cell_length_b       5.269744245484231
_cell_length_c       5.269744125325147
_cell_angle_alpha    59.99999982739721
_cell_angle_beta     60.0000003740346
_cell_angle_gamma    60.00000195546589

_space_group_name_H-M_alt    "P 1"
_space_group_IT_number       1

loop_
  _space_group_symop_operation_xyz
  'x, y, z'

loop_
  _atom_site_type_symbol
  _atom_site_label
  _atom_site_symmetry_multiplicity
  _atom_site_fract_x
  _atom_site_fract_y
  _atom_site_fract_z
  _atom_site_occupancy
  Cu  Cu1       1.0  0.25000003869585635  0.25000004676714904  0.24999999669244033  1.0000
  Cu  Cu2       1.0  0.7500000551141245  0.7499999288077277  0.7499999650127496  1.0000
  Cr  Cr1       1.0  0.999999972532277  2.3241067035582184e-08  5.904208765305826e-08  1.0000
  F   F1        1.0  0.2506645462027838  0.25066445112832325  0.7493354605581234  1.0000
  F   F2        1.0  0.7493354653597438  0.749335547687622  0.2506644813119986  1.0000
  F   F3        1.0  0.7493354581716325  0.25066459494342497  0.2506645323950537  1.0000
  F   F4        1.0  0.2506644740637302  0.7493355038091112  0.7493355149254993  1.0000
  F   F5        1.0  0.25066443219164375  0.74933546163645  0.2506644986376443  1.0000
  F   F6        1.0  0.7493355557121649  0.25066443724290094  0.7493355221087628  1.0000
