data_image0
_chemical_formula_structural       Cu2CF6
_chemical_formula_sum              "Cu2 C1 F6"
_cell_length_a       4.907743079388189
_cell_length_b       4.907743237220056
_cell_length_c       4.907743207389428
_cell_angle_alpha    60.00000085967505
_cell_angle_beta     60.00000072995484
_cell_angle_gamma    60.00000033368363

_space_group_name_H-M_alt    "P 1"
_space_group_IT_number       1

loop_
  _space_group_symop_operation_xyz
  'x, y, z'

loop_
  _atom_site_type_symbol
  _atom_site_label
  _atom_site_symmetry_multiplicity
  _atom_site_fract_x
  _atom_site_fract_y
  _atom_site_fract_z
  _atom_site_occupancy
  Cu  Cu1       1.0  0.2500000243784358  0.25000001273718186  0.25000000328133226  1.0000
  Cu  Cu2       1.0  0.7499999682577428  0.749999985805296  0.7500000212452202  1.0000
  C   C1        1.0  0.9999999750691294  3.244196469965537e-08  1.4582820591520295e-08  1.0000
  F   F1        1.0  0.22469558084409733  0.22469556838292135  0.7753044317790827  1.0000
  F   F2        1.0  0.7753044214642936  0.7753044576104494  0.22469558233630343  1.0000
  F   F3        1.0  0.7753044843347571  0.22469553585378807  0.2246955762466131  1.0000
  F   F4        1.0  0.22469553016586713  0.7753044676797609  0.775304351310728  1.0000
  F   F5        1.0  0.22469550693136833  0.7753044544050057  0.22469560382322784  1.0000
  F   F6        1.0  0.7753045153413074  0.22469551169550753  0.7753043528277803  1.0000
