data_image0
_chemical_formula_structural       Cu2CoBr6
_chemical_formula_sum              "Cu2 Co1 Br6"
_cell_length_a       6.868301816582246
_cell_length_b       6.868301813608234
_cell_length_c       6.868301697246742
_cell_angle_alpha    59.99999968727605
_cell_angle_beta     60.00000086815569
_cell_angle_gamma    60.0000021553588

_space_group_name_H-M_alt    "P 1"
_space_group_IT_number       1

loop_
  _space_group_symop_operation_xyz
  'x, y, z'

loop_
  _atom_site_type_symbol
  _atom_site_label
  _atom_site_symmetry_multiplicity
  _atom_site_fract_x
  _atom_site_fract_y
  _atom_site_fract_z
  _atom_site_occupancy
  Cu  Cu1       1.0  0.24999994978593  0.2500000359944371  0.2500000426139772  1.0000
  Cu  Cu2       1.0  0.7500001646634651  0.7499998833020862  0.7499999223736689  1.0000
  Co  Co1       1.0  0.9999999800295355  0.9999999893008932  6.5990016863949e-09  1.0000
  Br  Br1       1.0  0.2480849007172137  0.24808499738572806  0.7519150575422328  1.0000
  Br  Br2       1.0  0.7519150958760479  0.7519150485168843  0.2480849627649585  1.0000
  Br  Br3       1.0  0.7519149902776645  0.248084969780106  0.24808497556750375  1.0000
  Br  Br4       1.0  0.24808495024152413  0.7519150779056901  0.7519149990869319  1.0000
  Br  Br5       1.0  0.24808492241673133  0.7519150156903336  0.24808494133397738  1.0000
  Br  Br6       1.0  0.7519150353399057  0.24808498028311463  0.7519150913249006  1.0000
