data_image0
_chemical_formula_structural       Cu2CrI6
_chemical_formula_sum              "Cu2 Cr1 I6"
_cell_length_a       7.563347577556036
_cell_length_b       7.563347606753873
_cell_length_c       7.563347618124063
_cell_angle_alpha    60.00000015520623
_cell_angle_beta     60.0000005565855
_cell_angle_gamma    59.99999966965053

_space_group_name_H-M_alt    "P 1"
_space_group_IT_number       1

loop_
  _space_group_symop_operation_xyz
  'x, y, z'

loop_
  _atom_site_type_symbol
  _atom_site_label
  _atom_site_symmetry_multiplicity
  _atom_site_fract_x
  _atom_site_fract_y
  _atom_site_fract_z
  _atom_site_occupancy
  Cu  Cu1       1.0  0.24999998234105938  0.2499999488818017  0.2500000733072623  1.0000
  Cu  Cu2       1.0  0.7499999674841175  0.750000028008781  0.7500001996617471  1.0000
  Cr  Cr1       1.0  8.14102290257328e-08  0.9999999206535224  9.545451477734234e-09  1.0000
  I   I1        1.0  0.24764394593214162  0.247643942876146  0.7523560417352109  1.0000
  I   I2        1.0  0.7523560834510562  0.7523560518269108  0.24764382820810113  1.0000
  I   I3        1.0  0.7523560565949161  0.24764402234472913  0.24764387695109655  1.0000
  I   I4        1.0  0.24764388705987828  0.7523560646593321  0.7523561166338373  1.0000
  I   I5        1.0  0.24764390224880928  0.7523561361365819  0.24764385157864036  1.0000
  I   I6        1.0  0.7523560867917704  0.24764389257210828  0.7523560109558372  1.0000
