data_image0
_chemical_formula_structural       Cu2CoCl6
_chemical_formula_sum              "Cu2 Co1 Cl6"
_cell_length_a       6.480761563076635
_cell_length_b       6.480761479000589
_cell_length_c       6.480761585034097
_cell_angle_alpha    59.99999991774117
_cell_angle_beta     59.99999865899362
_cell_angle_gamma    59.99999975158531

_space_group_name_H-M_alt    "P 1"
_space_group_IT_number       1

loop_
  _space_group_symop_operation_xyz
  'x, y, z'

loop_
  _atom_site_type_symbol
  _atom_site_label
  _atom_site_symmetry_multiplicity
  _atom_site_fract_x
  _atom_site_fract_y
  _atom_site_fract_z
  _atom_site_occupancy
  Cu  Cu1       1.0  0.24999989137889778  0.25000008922785233  0.24999999705229303  1.0000
  Cu  Cu2       1.0  0.7499998605736633  0.7500001146084356  0.7499998618348699  1.0000
  Co  Co1       1.0  2.4187737428278546e-08  3.9686143994145125e-08  1.2236591186486854e-07  1.0000
  Cl  Cl1       1.0  0.2450587964698097  0.24505862136136256  0.7549412719083309  1.0000
  Cl  Cl2       1.0  0.7549413623362909  0.7549412385283609  0.24505874377482  1.0000
  Cl  Cl3       1.0  0.7549413838782694  0.24505856727015693  0.2450587319114409  1.0000
  Cl  Cl4       1.0  0.24505884718853416  0.7549412094676493  0.7549412892173163  1.0000
  Cl  Cl5       1.0  0.24505865630420395  0.7549412932683083  0.24505873766057196  1.0000
  Cl  Cl6       1.0  0.7549411985228094  0.2450588104077173  0.754941269543262  1.0000
