data_image0
_chemical_formula_structural       Cu2FeCl6
_chemical_formula_sum              "Cu2 Fe1 Cl6"
_cell_length_a       6.481347486474448
_cell_length_b       6.481347566299186
_cell_length_c       6.481347942208307
_cell_angle_alpha    59.99999948413532
_cell_angle_beta     59.999998053979496
_cell_angle_gamma    59.999998960320305

_space_group_name_H-M_alt    "P 1"
_space_group_IT_number       1

loop_
  _space_group_symop_operation_xyz
  'x, y, z'

loop_
  _atom_site_type_symbol
  _atom_site_label
  _atom_site_symmetry_multiplicity
  _atom_site_fract_x
  _atom_site_fract_y
  _atom_site_fract_z
  _atom_site_occupancy
  Cu  Cu1       1.0  0.24999988284928126  0.2499999399473157  0.25000007791349915  1.0000
  Cu  Cu2       1.0  0.7500000466447925  0.7500000579372684  0.7499999850743679  1.0000
  Fe  Fe1       1.0  3.2679687365209996e-08  3.023432282733988e-08  0.9999997124234328  1.0000
  Cl  Cl1       1.0  0.2436236446207833  0.24362362975148996  0.7563763410691745  1.0000
  Cl  Cl2       1.0  0.756376331824118  0.7563763662434483  0.24362369630232394  1.0000
  Cl  Cl3       1.0  0.7563762970180326  0.24362367699967988  0.243623730432645  1.0000
  Cl  Cl4       1.0  0.24362362551025726  0.7563764059189498  0.7563764076948732  1.0000
  Cl  Cl5       1.0  0.2436236973380732  0.7563763021297084  0.24362370624198199  1.0000
  Cl  Cl6       1.0  0.7563764370927332  0.24362359938295836  0.7563763610932565  1.0000
