data_image0
_chemical_formula_structural       Cu2FeBr6
_chemical_formula_sum              "Cu2 Fe1 Br6"
_cell_length_a       7.088704286372571
_cell_length_b       7.088703989251511
_cell_length_c       7.088704212793689
_cell_angle_alpha    59.999998492009276
_cell_angle_beta     59.999997350391006
_cell_angle_gamma    59.999998461847504

_space_group_name_H-M_alt    "P 1"
_space_group_IT_number       1

loop_
  _space_group_symop_operation_xyz
  'x, y, z'

loop_
  _atom_site_type_symbol
  _atom_site_label
  _atom_site_symmetry_multiplicity
  _atom_site_fract_x
  _atom_site_fract_y
  _atom_site_fract_z
  _atom_site_occupancy
  Cu  Cu1       1.0  0.2500000729585742  0.24999997342655744  0.2499999016586101  1.0000
  Cu  Cu2       1.0  0.7500001149516058  0.7500000170332035  0.7499998327022902  1.0000
  Fe  Fe1       1.0  0.9999999791372911  0.999999955078718  7.380215274120317e-08  1.0000
  Br  Br1       1.0  0.22629537867103214  0.2262954563204045  0.7737046439099349  1.0000
  Br  Br2       1.0  0.7737045025710786  0.7737046136154715  0.22629545656136463  1.0000
  Br  Br3       1.0  0.7737045818920181  0.22629545684347974  0.2262954763612973  1.0000
  Br  Br4       1.0  0.2262953578588693  0.7737046770188362  0.7737045106966752  1.0000
  Br  Br5       1.0  0.22629541733146533  0.7737045285820056  0.22629560094472698  1.0000
  Br  Br6       1.0  0.7737045948038993  0.2262953685797085  0.7737045049493784  1.0000
