data_image0
_chemical_formula_structural       Cu2FeF6
_chemical_formula_sum              "Cu2 Fe1 F6"
_cell_length_a       5.3705046727424195
_cell_length_b       5.370504742519334
_cell_length_c       5.370504995889219
_cell_angle_alpha    59.99999765450753
_cell_angle_beta     59.999998777884684
_cell_angle_gamma    60.00000026219874

_space_group_name_H-M_alt    "P 1"
_space_group_IT_number       1

loop_
  _space_group_symop_operation_xyz
  'x, y, z'

loop_
  _atom_site_type_symbol
  _atom_site_label
  _atom_site_symmetry_multiplicity
  _atom_site_fract_x
  _atom_site_fract_y
  _atom_site_fract_z
  _atom_site_occupancy
  Cu  Cu1       1.0  0.25000001655746723  0.24999996615103148  0.25000004996170505  1.0000
  Cu  Cu2       1.0  0.749999971419909  0.7500000558077592  0.750000060059426  1.0000
  Fe  Fe1       1.0  2.499601893386806e-08  7.981758412190594e-08  0.9999999606273542  1.0000
  F   F1        1.0  0.24863283460224955  0.24863273062699412  0.7513671957754644  1.0000
  F   F2        1.0  0.7513673356772127  0.751367202392208  0.24863270556848036  1.0000
  F   F3        1.0  0.7513670565907861  0.24863287397644343  0.24863292093244704  1.0000
  F   F4        1.0  0.24863278720092064  0.7513671548238529  0.7513671963140297  1.0000
  F   F5        1.0  0.24863283688672713  0.7513671037438483  0.24863285413897268  1.0000
  F   F6        1.0  0.751367120143712  0.24863284979987293  0.7513670523281306  1.0000
