data_image0
_chemical_formula_structural       Cu2FeBr6
_chemical_formula_sum              "Cu2 Fe1 Br6"
_cell_length_a       7.087588559856174
_cell_length_b       7.087588539659194
_cell_length_c       7.087588049294453
_cell_angle_alpha    60.00000011831766
_cell_angle_beta     59.99999924766824
_cell_angle_gamma    60.00000158897573

_space_group_name_H-M_alt    "P 1"
_space_group_IT_number       1

loop_
  _space_group_symop_operation_xyz
  'x, y, z'

loop_
  _atom_site_type_symbol
  _atom_site_label
  _atom_site_symmetry_multiplicity
  _atom_site_fract_x
  _atom_site_fract_y
  _atom_site_fract_z
  _atom_site_occupancy
  Cu  Cu1       1.0  0.2500000151737968  0.2499999268174489  0.2500001396632813  1.0000
  Cu  Cu2       1.0  0.7500000489406113  0.7499999999100647  0.7499999294255567  1.0000
  Fe  Fe1       1.0  4.2466394893466085e-09  0.9999999481595951  3.790605557302066e-08  1.0000
  Br  Br1       1.0  0.22632717666933172  0.22632723072354533  0.7736727901498631  1.0000
  Br  Br2       1.0  0.7736727464935396  0.773672825604979  0.22632716186444127  1.0000
  Br  Br3       1.0  0.773672804366144  0.2263272603294449  0.22632713395408274  1.0000
  Br  Br4       1.0  0.2263273052327584  0.77367273033457  0.7736727858928018  1.0000
  Br  Br5       1.0  0.22632724038449614  0.7736727079404119  0.22632725256754044  1.0000
  Br  Br6       1.0  0.7736726582247904  0.22632738294838092  0.7736727480582761  1.0000
