data_image0
_chemical_formula_structural       Cu2FeCl6
_chemical_formula_sum              "Cu2 Fe1 Cl6"
_cell_length_a       6.48368421582571
_cell_length_b       6.483684244086033
_cell_length_c       6.483684325941879
_cell_angle_alpha    59.99999933757534
_cell_angle_beta     59.99999989594765
_cell_angle_gamma    59.999999385812124

_space_group_name_H-M_alt    "P 1"
_space_group_IT_number       1

loop_
  _space_group_symop_operation_xyz
  'x, y, z'

loop_
  _atom_site_type_symbol
  _atom_site_label
  _atom_site_symmetry_multiplicity
  _atom_site_fract_x
  _atom_site_fract_y
  _atom_site_fract_z
  _atom_site_occupancy
  Cu  Cu1       1.0  0.25000000014128526  0.24999999234291662  0.25000000524438215  1.0000
  Cu  Cu2       1.0  0.7499999762994446  0.7500000280307894  0.7499999791593377  1.0000
  Fe  Fe1       1.0  0.9999999631035007  3.589032376351284e-08  5.7569406855442636e-08  1.0000
  Cl  Cl1       1.0  0.24345067682388272  0.24345071248028866  0.7565493063656384  1.0000
  Cl  Cl2       1.0  0.7565493055893004  0.7565493060044529  0.2434507037583301  1.0000
  Cl  Cl3       1.0  0.7565493399673474  0.2434506701143649  0.24345066154434467  1.0000
  Cl  Cl4       1.0  0.24345072366812495  0.756549291701444  0.7565492483899675  1.0000
  Cl  Cl5       1.0  0.24345066226319229  0.7565493299031912  0.24345069245500398  1.0000
  Cl  Cl6       1.0  0.7565493526574423  0.24345063380158188  0.7565493442285528  1.0000
