data_image0
_chemical_formula_structural       Cu2FeF6
_chemical_formula_sum              "Cu2 Fe1 F6"
_cell_length_a       5.3697065032721785
_cell_length_b       5.369706399555336
_cell_length_c       5.369706414194458
_cell_angle_alpha    59.99999907797364
_cell_angle_beta     59.99999976332486
_cell_angle_gamma    59.99999832016429

_space_group_name_H-M_alt    "P 1"
_space_group_IT_number       1

loop_
  _space_group_symop_operation_xyz
  'x, y, z'

loop_
  _atom_site_type_symbol
  _atom_site_label
  _atom_site_symmetry_multiplicity
  _atom_site_fract_x
  _atom_site_fract_y
  _atom_site_fract_z
  _atom_site_occupancy
  Cu  Cu1       1.0  0.25000003602226456  0.2500000258947462  0.24999997956253292  1.0000
  Cu  Cu2       1.0  0.7499999640572803  0.7499999613613263  0.7500000502308212  1.0000
  Fe  Fe1       1.0  3.414547857905824e-08  1.368504819726993e-08  0.9999999984323268  1.0000
  F   F1        1.0  0.24865060023396632  0.24865063354159164  0.7513493886034377  1.0000
  F   F2        1.0  0.7513493762768831  0.751349424420566  0.24865060644742587  1.0000
  F   F3        1.0  0.7513493721338996  0.24865063254629682  0.24865051177943337  1.0000
  F   F4        1.0  0.2486506402181964  0.7513493501480935  0.7513493968336362  1.0000
  F   F5        1.0  0.24865065894945731  0.7513493123413996  0.2486505823044611  1.0000
  F   F6        1.0  0.7513493255779092  0.2486506635104658  0.751349470278582  1.0000
