data_image0
_chemical_formula_structural       Cu2FeI6
_chemical_formula_sum              "Cu2 Fe1 I6"
_cell_length_a       7.508433420978457
_cell_length_b       7.508432930305065
_cell_length_c       7.508433484276684
_cell_angle_alpha    60.000000189670416
_cell_angle_beta     59.999995468933335
_cell_angle_gamma    60.00000153894073

_space_group_name_H-M_alt    "P 1"
_space_group_IT_number       1

loop_
  _space_group_symop_operation_xyz
  'x, y, z'

loop_
  _atom_site_type_symbol
  _atom_site_label
  _atom_site_symmetry_multiplicity
  _atom_site_fract_x
  _atom_site_fract_y
  _atom_site_fract_z
  _atom_site_occupancy
  Cu  Cu1       1.0  0.25000002398731014  0.2500000318393812  0.2500000126880555  1.0000
  Cu  Cu2       1.0  0.7500000347599006  0.7499999764435197  0.749999908436118  1.0000
  Fe  Fe1       1.0  0.9999998572285363  0.999999879294229  2.6891769985290465e-07  1.0000
  I   I1        1.0  0.22835909501164728  0.22835900644959903  0.7716409685418777  1.0000
  I   I2        1.0  0.7716410728604158  0.7716411127521275  0.22835893179344935  1.0000
  I   I3        1.0  0.7716411181950806  0.2283589163174056  0.22835900188487285  1.0000
  I   I4        1.0  0.22835905856855754  0.7716408440293204  0.7716410095040445  1.0000
  I   I5        1.0  0.22835898529880877  0.7716409952656764  0.22835904513082317  1.0000
  I   I6        1.0  0.771640746313462  0.22835920549398142  0.7716408887171913  1.0000
