data_image0
_chemical_formula_structural       Cu2GeCl6
_chemical_formula_sum              "Cu2 Ge1 Cl6"
_cell_length_a       6.6110345586319745
_cell_length_b       6.611034656432549
_cell_length_c       6.611034477467834
_cell_angle_alpha    60.000001393121835
_cell_angle_beta     60.0000037419522
_cell_angle_gamma    60.00000188297726

_space_group_name_H-M_alt    "P 1"
_space_group_IT_number       1

loop_
  _space_group_symop_operation_xyz
  'x, y, z'

loop_
  _atom_site_type_symbol
  _atom_site_label
  _atom_site_symmetry_multiplicity
  _atom_site_fract_x
  _atom_site_fract_y
  _atom_site_fract_z
  _atom_site_occupancy
  Cu  Cu1       1.0  0.24999995058616134  0.250000010866979  0.25000006906121874  1.0000
  Cu  Cu2       1.0  0.7499999903080439  0.7499999418246818  0.7500000456483528  1.0000
  Ge  Ge1       1.0  1.671281628183821e-07  5.928245449594373e-08  0.9999998020878316  1.0000
  Cl  Cl1       1.0  0.24321439599592323  0.24321431915137331  0.7567856105274448  1.0000
  Cl  Cl2       1.0  0.7567855534044475  0.7567854927444617  0.24321446595599872  1.0000
  Cl  Cl3       1.0  0.756785469772212  0.2432145080491039  0.2432144306971942  1.0000
  Cl  Cl4       1.0  0.24321448304558127  0.7567856132270336  0.7567855483796685  1.0000
  Cl  Cl5       1.0  0.2432143367504889  0.7567856649705187  0.24321438655470334  1.0000
  Cl  Cl6       1.0  0.7567856336758721  0.2432143877602822  0.7567856376546375  1.0000
