data_image0
_chemical_formula_structural       Cu2GeF6
_chemical_formula_sum              "Cu2 Ge1 F6"
_cell_length_a       5.36981624077227
_cell_length_b       5.369816437678998
_cell_length_c       5.369816462643835
_cell_angle_alpha    59.99999966060097
_cell_angle_beta     59.99999969367341
_cell_angle_gamma    59.99999903978777

_space_group_name_H-M_alt    "P 1"
_space_group_IT_number       1

loop_
  _space_group_symop_operation_xyz
  'x, y, z'

loop_
  _atom_site_type_symbol
  _atom_site_label
  _atom_site_symmetry_multiplicity
  _atom_site_fract_x
  _atom_site_fract_y
  _atom_site_fract_z
  _atom_site_occupancy
  Cu  Cu1       1.0  0.25000003505595675  0.2499999643807042  0.2500000445204434  1.0000
  Cu  Cu2       1.0  0.7499998917386859  0.7499999592851622  0.7500000842951671  1.0000
  Ge  Ge1       1.0  1.2272299526087688e-08  0.9999999954384104  0.9999999961446451  1.0000
  F   F1        1.0  0.2393322223836429  0.23933229019297972  0.7606678211544524  1.0000
  F   F2        1.0  0.7606677183751903  0.7606677657589778  0.23933224943410564  1.0000
  F   F3        1.0  0.760667969012048  0.2393321401413312  0.23933207130737366  1.0000
  F   F4        1.0  0.2393320518987831  0.760667772120561  0.760667906278729  1.0000
  F   F5        1.0  0.23933225176304543  0.7606678847847659  0.23933211787974884  1.0000
  F   F6        1.0  0.7606678615011038  0.23933222134467275  0.7606676942487894  1.0000
