data_image0
_chemical_formula_structural       Cu2GeBr6
_chemical_formula_sum              "Cu2 Ge1 Br6"
_cell_length_a       7.035457669646577
_cell_length_b       7.035457624523274
_cell_length_c       7.03545744729521
_cell_angle_alpha    60.00000072663603
_cell_angle_beta     60.000000913129035
_cell_angle_gamma    60.00000290669325

_space_group_name_H-M_alt    "P 1"
_space_group_IT_number       1

loop_
  _space_group_symop_operation_xyz
  'x, y, z'

loop_
  _atom_site_type_symbol
  _atom_site_label
  _atom_site_symmetry_multiplicity
  _atom_site_fract_x
  _atom_site_fract_y
  _atom_site_fract_z
  _atom_site_occupancy
  Cu  Cu1       1.0  0.24999991871329422  0.24999977406261614  0.25000006025286303  1.0000
  Cu  Cu2       1.0  0.7500001935306618  0.7500000829251559  0.7499998631261381  1.0000
  Ge  Ge1       1.0  1.7638527778343884e-08  5.048371117241685e-08  0.9999999559892787  1.0000
  Br  Br1       1.0  0.24491332299711865  0.24491333081633934  0.7550866772994627  1.0000
  Br  Br2       1.0  0.7550865713547572  0.7550866776225582  0.2449133859028922  1.0000
  Br  Br3       1.0  0.7550867245401128  0.24491331236452374  0.2449133994111876  1.0000
  Br  Br4       1.0  0.24491324945404241  0.7550867082600994  0.75508664772597  1.0000
  Br  Br5       1.0  0.2449132961339643  0.75508675736477  0.24491339831997375  1.0000
  Br  Br6       1.0  0.7550867060261015  0.24491330678029408  0.7550866087098931  1.0000
