data_image0
_chemical_formula_structural       Cu2GeBr6
_chemical_formula_sum              "Cu2 Ge1 Br6"
_cell_length_a       7.036784062419188
_cell_length_b       7.036783958686551
_cell_length_c       7.036784116922972
_cell_angle_alpha    59.999998147451
_cell_angle_beta     59.99999787453259
_cell_angle_gamma    59.99999905490594

_space_group_name_H-M_alt    "P 1"
_space_group_IT_number       1

loop_
  _space_group_symop_operation_xyz
  'x, y, z'

loop_
  _atom_site_type_symbol
  _atom_site_label
  _atom_site_symmetry_multiplicity
  _atom_site_fract_x
  _atom_site_fract_y
  _atom_site_fract_z
  _atom_site_occupancy
  Cu  Cu1       1.0  0.250000185336603  0.2499999110073235  0.2499999776845301  1.0000
  Cu  Cu2       1.0  0.7500000691255743  0.7499999088114125  0.7499999408062067  1.0000
  Ge  Ge1       1.0  0.9999999209187357  4.525272751878644e-08  5.670517295078805e-08  1.0000
  Br  Br1       1.0  0.24488163959546988  0.2448817306689452  0.7551183524269478  1.0000
  Br  Br2       1.0  0.7551182899870491  0.7551183745900739  0.24488170373508641  1.0000
  Br  Br3       1.0  0.7551182696527222  0.244881714537936  0.24488164607965954  1.0000
  Br  Br4       1.0  0.2448816973417845  0.7551182932536696  0.7551182979997173  1.0000
  Br  Br5       1.0  0.244881681120433  0.7551182821385561  0.24488170211142246  1.0000
  Br  Br6       1.0  0.7551182445517204  0.2448817413174545  0.7551183258521142  1.0000
