data_image0
_chemical_formula_structural       Cu2HgI6
_chemical_formula_sum              "Cu2 Hg1 I6"
_cell_length_a       7.752003805991033
_cell_length_b       7.752003806985666
_cell_length_c       7.752003744530588
_cell_angle_alpha    60.00000001454152
_cell_angle_beta     60.00000009533813
_cell_angle_gamma    59.99999948904382

_space_group_name_H-M_alt    "P 1"
_space_group_IT_number       1

loop_
  _space_group_symop_operation_xyz
  'x, y, z'

loop_
  _atom_site_type_symbol
  _atom_site_label
  _atom_site_symmetry_multiplicity
  _atom_site_fract_x
  _atom_site_fract_y
  _atom_site_fract_z
  _atom_site_occupancy
  Cu  Cu1       1.0  0.24999999154743507  0.24999999455120428  0.25000000199703587  1.0000
  Cu  Cu2       1.0  0.7500000057421644  0.7499999931330572  0.7500000269811057  1.0000
  Hg  Hg1       1.0  2.0071512351519443e-08  0.9999999889406476  1.2263777792360622e-08  1.0000
  I   I1        1.0  0.2686485167698998  0.26864852122606125  0.7313514821470619  1.0000
  I   I2        1.0  0.7313514888400136  0.7313514727778304  0.26864850855137024  1.0000
  I   I3        1.0  0.7313514884483797  0.26864852050812554  0.26864850050807937  1.0000
  I   I4        1.0  0.26864851750745666  0.7313514813953034  0.7313514886476007  1.0000
  I   I5        1.0  0.2686485004886614  0.7313515124433417  0.26864848919302925  1.0000
  I   I6        1.0  0.7313514801293044  0.26864851631851433  0.7313514863024819  1.0000
