data_image0
_chemical_formula_structural       Cu2HfCl6
_chemical_formula_sum              "Cu2 Hf1 Cl6"
_cell_length_a       6.765401177232739
_cell_length_b       6.765400762922467
_cell_length_c       6.765401244340725
_cell_angle_alpha    60.00000115577146
_cell_angle_beta     60.00000052488116
_cell_angle_gamma    59.99999925103342

_space_group_name_H-M_alt    "P 1"
_space_group_IT_number       1

loop_
  _space_group_symop_operation_xyz
  'x, y, z'

loop_
  _atom_site_type_symbol
  _atom_site_label
  _atom_site_symmetry_multiplicity
  _atom_site_fract_x
  _atom_site_fract_y
  _atom_site_fract_z
  _atom_site_occupancy
  Cu  Cu1       1.0  0.24999994261430786  0.2500001995509107  0.2500000107448066  1.0000
  Cu  Cu2       1.0  0.7499999921164408  0.7500000392680248  0.7499999016498183  1.0000
  Hf  Hf1       1.0  0.9999999844319746  1.0861839829555436e-08  3.043716264998147e-08  1.0000
  Cl  Cl1       1.0  0.25418839668303783  0.25418830024747424  0.7458116045839682  1.0000
  Cl  Cl2       1.0  0.7458116852504427  0.7458115584071029  0.2541883666452123  1.0000
  Cl  Cl3       1.0  0.7458116134171225  0.2541882184205422  0.2541884454011479  1.0000
  Cl  Cl4       1.0  0.2541883264222857  0.7458116927329257  0.7458116474872886  1.0000
  Cl  Cl5       1.0  0.25418840613201027  0.745811615017404  0.25418834879114177  1.0000
  Cl  Cl6       1.0  0.7458116496289129  0.2541883631174025  0.7458116615145239  1.0000
