data_image0
_chemical_formula_structural       Cu2HfBr6
_chemical_formula_sum              "Cu2 Hf1 Br6"
_cell_length_a       7.325951015699382
_cell_length_b       7.325951054495332
_cell_length_c       7.325951219989723
_cell_angle_alpha    59.999999826724114
_cell_angle_beta     59.999998632852204
_cell_angle_gamma    60.000000722703966

_space_group_name_H-M_alt    "P 1"
_space_group_IT_number       1

loop_
  _space_group_symop_operation_xyz
  'x, y, z'

loop_
  _atom_site_type_symbol
  _atom_site_label
  _atom_site_symmetry_multiplicity
  _atom_site_fract_x
  _atom_site_fract_y
  _atom_site_fract_z
  _atom_site_occupancy
  Cu  Cu1       1.0  0.24999998415910418  0.25000002132893606  0.2500000125161107  1.0000
  Cu  Cu2       1.0  0.7499999689739897  0.7499999151975351  0.7500000559192634  1.0000
  Hf  Hf1       1.0  7.998624795873925e-08  4.848189907260428e-08  0.9999999698911878  1.0000
  Br  Br1       1.0  0.2516921551624889  0.25169217742184163  0.748307805289986  1.0000
  Br  Br2       1.0  0.7483077757128859  0.7483077691353662  0.25169221192844027  1.0000
  Br  Br3       1.0  0.7483077950257274  0.25169223590398243  0.2516922145555682  1.0000
  Br  Br4       1.0  0.2516922288905704  0.7483077908991268  0.7483077665248326  1.0000
  Br  Br5       1.0  0.25169223831429577  0.7483077834895667  0.25169221475175624  1.0000
  Br  Br6       1.0  0.7483077701106483  0.25169225668785883  0.7483077551020696  1.0000
