data_image0
_chemical_formula_structural       Cu2HfI6
_chemical_formula_sum              "Cu2 Hf1 I6"
_cell_length_a       7.99053530848556
_cell_length_b       7.990535316677908
_cell_length_c       7.990535297999922
_cell_angle_alpha    59.999999437019945
_cell_angle_beta     59.99999989810171
_cell_angle_gamma    60.00000186562808

_space_group_name_H-M_alt    "P 1"
_space_group_IT_number       1

loop_
  _space_group_symop_operation_xyz
  'x, y, z'

loop_
  _atom_site_type_symbol
  _atom_site_label
  _atom_site_symmetry_multiplicity
  _atom_site_fract_x
  _atom_site_fract_y
  _atom_site_fract_z
  _atom_site_occupancy
  Cu  Cu1       1.0  0.25000000890339535  0.2499999728870705  0.25000001150004636  1.0000
  Cu  Cu2       1.0  0.750000026577409  0.7500000014294121  0.7499999543865279  1.0000
  Hf  Hf1       1.0  0.9999999588664175  0.9999999846725541  7.328381630681316e-08  1.0000
  I   I1        1.0  0.25010758534919897  0.25010763257083124  0.74989237729053  1.0000
  I   I2        1.0  0.7498923649291516  0.7498923892607273  0.2501076374752679  1.0000
  I   I3        1.0  0.7498923377654767  0.2501076617399788  0.25010766140097906  1.0000
  I   I4        1.0  0.2501076981235439  0.7498923416986486  0.7498922822115309  1.0000
  I   I5        1.0  0.25010766109950855  0.749892346584729  0.25010765669340373  1.0000
  I   I6        1.0  0.7498923581196819  0.25010767218134194  0.7498923414039659  1.0000
