data_image0
_chemical_formula_structural       Cu2HgCl6
_chemical_formula_sum              "Cu2 Hg1 Cl6"
_cell_length_a       6.68329988826637
_cell_length_b       6.683299561896979
_cell_length_c       6.683299764770378
_cell_angle_alpha    59.99999901442246
_cell_angle_beta     59.999998401961264
_cell_angle_gamma    59.99999832006217

_space_group_name_H-M_alt    "P 1"
_space_group_IT_number       1

loop_
  _space_group_symop_operation_xyz
  'x, y, z'

loop_
  _atom_site_type_symbol
  _atom_site_label
  _atom_site_symmetry_multiplicity
  _atom_site_fract_x
  _atom_site_fract_y
  _atom_site_fract_z
  _atom_site_occupancy
  Cu  Cu1       1.0  0.2499999291622391  0.24999996382714182  0.25000001309891157  1.0000
  Cu  Cu2       1.0  0.7500000170994191  0.7500000215921399  0.7500000404833138  1.0000
  Hg  Hg1       1.0  0.9999999693198962  0.9999999780094575  8.468973148191502e-08  1.0000
  Cl  Cl1       1.0  0.2664082192624946  0.26640816964951236  0.7335918453074588  1.0000
  Cl  Cl2       1.0  0.7335917769448759  0.7335919147272134  0.2664081517783898  1.0000
  Cl  Cl3       1.0  0.7335919550579961  0.2664081762139252  0.2664080588939384  1.0000
  Cl  Cl4       1.0  0.2664081500180767  0.7335916955875499  0.7335918957803697  1.0000
  Cl  Cl5       1.0  0.2664080856410487  0.7335918473553406  0.266408182356646  1.0000
  Cl  Cl6       1.0  0.7335918898334423  0.2664082370213842  0.7335917263420301  1.0000
