data_image0
_chemical_formula_structural       Cu2HgBr6
_chemical_formula_sum              "Cu2 Hg1 Br6"
_cell_length_a       7.136282158905533
_cell_length_b       7.1362821990822525
_cell_length_c       7.136282260442328
_cell_angle_alpha    59.99999999293139
_cell_angle_beta     60.00000017645944
_cell_angle_gamma    59.99999932636606

_space_group_name_H-M_alt    "P 1"
_space_group_IT_number       1

loop_
  _space_group_symop_operation_xyz
  'x, y, z'

loop_
  _atom_site_type_symbol
  _atom_site_label
  _atom_site_symmetry_multiplicity
  _atom_site_fract_x
  _atom_site_fract_y
  _atom_site_fract_z
  _atom_site_occupancy
  Cu  Cu1       1.0  0.2499999832226805  0.2500000752913846  0.24999999768189773  1.0000
  Cu  Cu2       1.0  0.7499999505711441  0.749999980454323  0.7500000228189255  1.0000
  Hg  Hg1       1.0  0.9999999863207396  0.99999995366199  0.999999906695127  1.0000
  Br  Br1       1.0  0.2662385239193556  0.2662384742565399  0.733761501308939  1.0000
  Br  Br2       1.0  0.7337615238432896  0.7337615162727081  0.26623847659893607  1.0000
  Br  Br3       1.0  0.7337614751963206  0.2662385694331785  0.2662384265064662  1.0000
  Br  Br4       1.0  0.2662384670467839  0.7337615240694262  0.7337615975157763  1.0000
  Br  Br5       1.0  0.26623855364218985  0.7337614104719764  0.26623849628601964  1.0000
  Br  Br6       1.0  0.7337615504276644  0.266238483948806  0.7337615673831075  1.0000
