data_image0
_chemical_formula_structural       Cu2HgF6
_chemical_formula_sum              "Cu2 Hg1 F6"
_cell_length_a       5.589496493239294
_cell_length_b       5.58949644821293
_cell_length_c       5.589496518535693
_cell_angle_alpha    60.0000000812578
_cell_angle_beta     60.00000143852745
_cell_angle_gamma    60.000001468780084

_space_group_name_H-M_alt    "P 1"
_space_group_IT_number       1

loop_
  _space_group_symop_operation_xyz
  'x, y, z'

loop_
  _atom_site_type_symbol
  _atom_site_label
  _atom_site_symmetry_multiplicity
  _atom_site_fract_x
  _atom_site_fract_y
  _atom_site_fract_z
  _atom_site_occupancy
  Cu  Cu1       1.0  0.2500000162704768  0.25000011787662724  0.24999985112270792  1.0000
  Cu  Cu2       1.0  0.7500000766557406  0.749999904443269  0.7499999411571941  1.0000
  Hg  Hg1       1.0  0.9999999905479987  0.9999999539857615  0.999999983006372  1.0000
  F   F1        1.0  0.26355022643178827  0.26355043026807345  0.7364496581755585  1.0000
  F   F2        1.0  0.7364497043779029  0.7364496073898998  0.2635503935568362  1.0000
  F   F3        1.0  0.7364496592425999  0.26355035636621743  0.26355039620683623  1.0000
  F   F4        1.0  0.2635503831439502  0.736449644042136  0.7364496917138064  1.0000
  F   F5        1.0  0.2635503624145562  0.7364496091550601  0.2635503767575392  1.0000
  F   F6        1.0  0.7364495567519809  0.26355038906213724  0.7364497345091486  1.0000
