data_image0
_chemical_formula_structural       Cu2InCl6
_chemical_formula_sum              "Cu2 In1 Cl6"
_cell_length_a       6.696869567753008
_cell_length_b       6.69686930228117
_cell_length_c       6.6968694855105415
_cell_angle_alpha    60.000000134573924
_cell_angle_beta     60.00000234030558
_cell_angle_gamma    59.99999964616493

_space_group_name_H-M_alt    "P 1"
_space_group_IT_number       1

loop_
  _space_group_symop_operation_xyz
  'x, y, z'

loop_
  _atom_site_type_symbol
  _atom_site_label
  _atom_site_symmetry_multiplicity
  _atom_site_fract_x
  _atom_site_fract_y
  _atom_site_fract_z
  _atom_site_occupancy
  Cu  Cu1       1.0  0.24999995034711853  0.2500000635142882  0.2500000087289704  1.0000
  Cu  Cu2       1.0  0.7500001233875886  0.7499999838848498  0.7500000232075048  1.0000
  In  In1       1.0  0.9999999460256189  2.7432479546880136e-08  0.9999999311430244  1.0000
  Cl  Cl1       1.0  0.26056732152731954  0.26056729653779936  0.7394326437373051  1.0000
  Cl  Cl2       1.0  0.7394327280172797  0.7394326630774021  0.2605672052685889  1.0000
  Cl  Cl3       1.0  0.739432637405262  0.26056729462155465  0.26056735982605633  1.0000
  Cl  Cl4       1.0  0.2605672295971148  0.7394326229305119  0.7394327493127796  1.0000
  Cl  Cl5       1.0  0.26056730154628416  0.7394327360028556  0.26056736654386814  1.0000
  Cl  Cl6       1.0  0.7394327547368457  0.2605673223692741  0.7394326895371898  1.0000
