data_image0
_chemical_formula_structural       Cu2IrCl6
_chemical_formula_sum              "Cu2 Ir1 Cl6"
_cell_length_a       6.643501739460491
_cell_length_b       6.643501670258703
_cell_length_c       6.64350170943893
_cell_angle_alpha    59.999999910396745
_cell_angle_beta     59.99999956738128
_cell_angle_gamma    59.99999998653267

_space_group_name_H-M_alt    "P 1"
_space_group_IT_number       1

loop_
  _space_group_symop_operation_xyz
  'x, y, z'

loop_
  _atom_site_type_symbol
  _atom_site_label
  _atom_site_symmetry_multiplicity
  _atom_site_fract_x
  _atom_site_fract_y
  _atom_site_fract_z
  _atom_site_occupancy
  Cu  Cu1       1.0  0.24999998534994686  0.25000014649568836  0.24999997762319187  1.0000
  Cu  Cu2       1.0  0.7500001548340341  0.7499998587772925  0.7500000771702249  1.0000
  Ir  Ir1       1.0  0.9999999745250653  2.949636917015634e-08  0.9999999453062228  1.0000
  Cl  Cl1       1.0  0.24533823144410927  0.2453382340859733  0.7546617348258573  1.0000
  Cl  Cl2       1.0  0.7546617395306139  0.7546617730305294  0.24533817937111507  1.0000
  Cl  Cl3       1.0  0.7546617343376971  0.2453382532484981  0.24533825639627424  1.0000
  Cl  Cl4       1.0  0.24533817834924163  0.7546617723032356  0.754661781587865  1.0000
  Cl  Cl5       1.0  0.24533826507952275  0.7546616931458903  0.2453382782390303  1.0000
  Cl  Cl6       1.0  0.7546617339516879  0.2453382402296892  0.7546617611558195  1.0000
