data_image0
_chemical_formula_structural       Cu2InI6
_chemical_formula_sum              "Cu2 In1 I6"
_cell_length_a       7.811877403297417
_cell_length_b       7.811877382194213
_cell_length_c       7.81187735531063
_cell_angle_alpha    59.999999298773524
_cell_angle_beta     60.00000046361482
_cell_angle_gamma    59.99999969355915

_space_group_name_H-M_alt    "P 1"
_space_group_IT_number       1

loop_
  _space_group_symop_operation_xyz
  'x, y, z'

loop_
  _atom_site_type_symbol
  _atom_site_label
  _atom_site_symmetry_multiplicity
  _atom_site_fract_x
  _atom_site_fract_y
  _atom_site_fract_z
  _atom_site_occupancy
  Cu  Cu1       1.0  0.24999992434486043  0.2500000263989596  0.2500000302807963  1.0000
  Cu  Cu2       1.0  0.7500000421165925  0.7499999725865877  0.7500000313682647  1.0000
  In  In1       1.0  0.9999999776178868  6.271193586395749e-08  0.999999973434578  1.0000
  I   I1        1.0  0.2616134289826167  0.26161350200998845  0.7383865404078662  1.0000
  I   I2        1.0  0.7383865664292621  0.7383865032467529  0.2616134409053855  1.0000
  I   I3        1.0  0.7383865321116293  0.26161351078101686  0.2616134420214163  1.0000
  I   I4        1.0  0.26161347808159424  0.7383864944757248  0.7383865216603469  1.0000
  I   I5        1.0  0.26161348014730246  0.7383865244349452  0.2616134637019494  1.0000
  I   I6        1.0  0.7383865663435079  0.2616134118386667  0.7383865508853403  1.0000
