data_image0
_chemical_formula_structural       Cu2IrF6
_chemical_formula_sum              "Cu2 Ir1 F6"
_cell_length_a       5.544641592450287
_cell_length_b       5.544641444798422
_cell_length_c       5.544641384631333
_cell_angle_alpha    59.99999848334745
_cell_angle_beta     59.99999996980603
_cell_angle_gamma    59.99999862211699

_space_group_name_H-M_alt    "P 1"
_space_group_IT_number       1

loop_
  _space_group_symop_operation_xyz
  'x, y, z'

loop_
  _atom_site_type_symbol
  _atom_site_label
  _atom_site_symmetry_multiplicity
  _atom_site_fract_x
  _atom_site_fract_y
  _atom_site_fract_z
  _atom_site_occupancy
  Cu  Cu1       1.0  0.24999995790074267  0.24999995115980336  0.2500000986256626  1.0000
  Cu  Cu2       1.0  0.750000016344355  0.7499999815944682  0.7499999098058937  1.0000
  Ir  Ir1       1.0  0.9999999577173162  3.313320396052616e-08  0.9999999955570241  1.0000
  F   F1        1.0  0.24858029342545665  0.24858024920876462  0.7514198121151691  1.0000
  F   F2        1.0  0.7514197366262141  0.7514197785273549  0.2485802886516883  1.0000
  F   F3        1.0  0.7514198102551382  0.24858037163519853  0.248580097121994  1.0000
  F   F4        1.0  0.24858024100103954  0.7514196362210015  0.7514198388601427  1.0000
  F   F5        1.0  0.24858021484618062  0.7514197527344768  0.2485802488677142  1.0000
  F   F6        1.0  0.7514197532342383  0.2485802484950825  0.7514197356227095  1.0000
