data_image0
_chemical_formula_structural       Cu2InBr6
_chemical_formula_sum              "Cu2 In1 Br6"
_cell_length_a       7.156744547790916
_cell_length_b       7.15674461939859
_cell_length_c       7.15674469914588
_cell_angle_alpha    59.99999971758867
_cell_angle_beta     59.99999976088418
_cell_angle_gamma    59.99999970273432

_space_group_name_H-M_alt    "P 1"
_space_group_IT_number       1

loop_
  _space_group_symop_operation_xyz
  'x, y, z'

loop_
  _atom_site_type_symbol
  _atom_site_label
  _atom_site_symmetry_multiplicity
  _atom_site_fract_x
  _atom_site_fract_y
  _atom_site_fract_z
  _atom_site_occupancy
  Cu  Cu1       1.0  0.24999998017142952  0.2499999091279122  0.25000004666187936  1.0000
  Cu  Cu2       1.0  0.7499999750423654  0.7500000884713292  0.7499999309995373  1.0000
  In  In1       1.0  0.9999999642442046  0.99999995721711  7.42014256070116e-08  1.0000
  Br  Br1       1.0  0.2619391037754478  0.26193903721955997  0.7380609334985946  1.0000
  Br  Br2       1.0  0.7380609453927853  0.738060968936259  0.26193907115518056  1.0000
  Br  Br3       1.0  0.7380609655759389  0.2619390221901983  0.2619390704311655  1.0000
  Br  Br4       1.0  0.2619390925235672  0.7380609668524646  0.7380609299298513  1.0000
  Br  Br5       1.0  0.26193902184139534  0.7380609980193756  0.26193902509141953  1.0000
  Br  Br6       1.0  0.7380609510056181  0.2619390338061778  0.7380609503940484  1.0000
