data_image0
_chemical_formula_structural       Cu2IrBr6
_chemical_formula_sum              "Cu2 Ir1 Br6"
_cell_length_a       7.051600998058315
_cell_length_b       7.051601004678343
_cell_length_c       7.051601093929399
_cell_angle_alpha    59.99999998646502
_cell_angle_beta     59.999999411989506
_cell_angle_gamma    60.00000120374536

_space_group_name_H-M_alt    "P 1"
_space_group_IT_number       1

loop_
  _space_group_symop_operation_xyz
  'x, y, z'

loop_
  _atom_site_type_symbol
  _atom_site_label
  _atom_site_symmetry_multiplicity
  _atom_site_fract_x
  _atom_site_fract_y
  _atom_site_fract_z
  _atom_site_occupancy
  Cu  Cu1       1.0  0.24999993005212276  0.24999997918942607  0.25000004064143294  1.0000
  Cu  Cu2       1.0  0.7500000195540784  0.7500000157257368  0.7499999681467145  1.0000
  Ir  Ir1       1.0  0.99999998671837  0.9999999808948442  4.171951062516791e-08  1.0000
  Br  Br1       1.0  0.24772071669019782  0.2477207175340237  0.7522792700672348  1.0000
  Br  Br2       1.0  0.7522793169904687  0.7522793051704578  0.247720706897021  1.0000
  Br  Br3       1.0  0.7522792788643229  0.24772072884964635  0.2477207533969115  1.0000
  Br  Br4       1.0  0.24772073768076713  0.7522792764865114  0.7522792252200002  1.0000
  Br  Br5       1.0  0.24772074253614804  0.7522792443793587  0.2477207800494897  1.0000
  Br  Br6       1.0  0.7522792692951001  0.24772075053580522  0.7522792160616634  1.0000
