data_image0
_chemical_formula_structural       Cu2MoCl6
_chemical_formula_sum              "Cu2 Mo1 Cl6"
_cell_length_a       6.744664253064503
_cell_length_b       6.744664097291763
_cell_length_c       6.744664355901674
_cell_angle_alpha    59.99999960973267
_cell_angle_beta     60.00000095931955
_cell_angle_gamma    59.999999361291486

_space_group_name_H-M_alt    "P 1"
_space_group_IT_number       1

loop_
  _space_group_symop_operation_xyz
  'x, y, z'

loop_
  _atom_site_type_symbol
  _atom_site_label
  _atom_site_symmetry_multiplicity
  _atom_site_fract_x
  _atom_site_fract_y
  _atom_site_fract_z
  _atom_site_occupancy
  Cu  Cu1       1.0  0.2499999359292417  0.24999989429240813  0.2500001563369327  1.0000
  Cu  Cu2       1.0  0.7499999794169034  0.7499999897596445  0.7499999777039131  1.0000
  Mo  Mo1       1.0  0.9999999794053553  0.999999912838129  8.353132640266243e-08  1.0000
  Cl  Cl1       1.0  0.24771042922061443  0.24771045740246722  0.7522895216484674  1.0000
  Cl  Cl2       1.0  0.7522896320922192  0.7522897026621774  0.24771038657620692  1.0000
  Cl  Cl3       1.0  0.7522896414251748  0.24771038964829614  0.24771046953756395  1.0000
  Cl  Cl4       1.0  0.24771043249797378  0.7522895579592873  0.7522895504717099  1.0000
  Cl  Cl5       1.0  0.24771040454647678  0.7522895629907762  0.24771043828382774  1.0000
  Cl  Cl6       1.0  0.7522895799687609  0.24771052443897534  0.7522894082529709  1.0000
