data_image0
_chemical_formula_structural       Cu2MoI6
_chemical_formula_sum              "Cu2 Mo1 I6"
_cell_length_a       7.698290515511047
_cell_length_b       7.69829041983163
_cell_length_c       7.698290310360121
_cell_angle_alpha    60.00000076235753
_cell_angle_beta     60.00000034323829
_cell_angle_gamma    59.999998945531324

_space_group_name_H-M_alt    "P 1"
_space_group_IT_number       1

loop_
  _space_group_symop_operation_xyz
  'x, y, z'

loop_
  _atom_site_type_symbol
  _atom_site_label
  _atom_site_symmetry_multiplicity
  _atom_site_fract_x
  _atom_site_fract_y
  _atom_site_fract_z
  _atom_site_occupancy
  Cu  Cu1       1.0  0.24999998548583993  0.2500000173971029  0.24999998313131985  1.0000
  Cu  Cu2       1.0  0.7499999620335839  0.7500000219636203  0.7499999734106793  1.0000
  Mo  Mo1       1.0  0.9999999863782935  5.8864446321635106e-08  0.99999997867762  1.0000
  I   I1        1.0  0.2527467712308923  0.252746779859398  0.7472532252365142  1.0000
  I   I2        1.0  0.7472531735616037  0.7472532451829468  0.25274681516954195  1.0000
  I   I3        1.0  0.7472532964345383  0.2527466726840869  0.2527467653381219  1.0000
  I   I4        1.0  0.25274677114285815  0.7472532584933284  0.7472532333291638  1.0000
  I   I5        1.0  0.25274676588834566  0.7472532463052073  0.25274676638836474  1.0000
  I   I6        1.0  0.7472532867649854  0.25274670714524194  0.7472532571822109  1.0000
