data_image0
_chemical_formula_structural       Cu2MgBr6
_chemical_formula_sum              "Cu2 Mg1 Br6"
_cell_length_a       6.998930603788013
_cell_length_b       6.998930551204571
_cell_length_c       6.998930677669976
_cell_angle_alpha    59.99999908165344
_cell_angle_beta     60.00000030692451
_cell_angle_gamma    60.00000037212483

_space_group_name_H-M_alt    "P 1"
_space_group_IT_number       1

loop_
  _space_group_symop_operation_xyz
  'x, y, z'

loop_
  _atom_site_type_symbol
  _atom_site_label
  _atom_site_symmetry_multiplicity
  _atom_site_fract_x
  _atom_site_fract_y
  _atom_site_fract_z
  _atom_site_occupancy
  Cu  Cu1       1.0  0.2500001289246334  0.2499999812341084  0.24999995715128664  1.0000
  Cu  Cu2       1.0  0.7499999784151739  0.7500000749450381  0.749999988580019  1.0000
  Mg  Mg1       1.0  2.134763707749808e-08  5.249708424581153e-09  6.3855970653946e-08  1.0000
  Br  Br1       1.0  0.25782110516163287  0.25782115523602456  0.742178866501428  1.0000
  Br  Br2       1.0  0.7421788485787046  0.7421788519458395  0.25782113909335214  1.0000
  Br  Br3       1.0  0.7421788145682248  0.2578211406837859  0.2578211990156117  1.0000
  Br  Br4       1.0  0.25782117958569384  0.74217879475206  0.7421788179590181  1.0000
  Br  Br5       1.0  0.25782114433265485  0.7421788117126196  0.25782115075110834  1.0000
  Br  Br6       1.0  0.7421787773948131  0.25782117272050703  0.742178827930467  1.0000
