data_image0
_chemical_formula_structural       Cu2MnF6
_chemical_formula_sum              "Cu2 Mn1 F6"
_cell_length_a       5.237910210247151
_cell_length_b       5.237910106627619
_cell_length_c       5.237910375620728
_cell_angle_alpha    59.99999916185955
_cell_angle_beta     59.9999980210526
_cell_angle_gamma    60.00000166938469

_space_group_name_H-M_alt    "P 1"
_space_group_IT_number       1

loop_
  _space_group_symop_operation_xyz
  'x, y, z'

loop_
  _atom_site_type_symbol
  _atom_site_label
  _atom_site_symmetry_multiplicity
  _atom_site_fract_x
  _atom_site_fract_y
  _atom_site_fract_z
  _atom_site_occupancy
  Cu  Cu1       1.0  0.2500000679320306  0.2500001303377056  0.24999989159781147  1.0000
  Cu  Cu2       1.0  0.7499999270830325  0.7499999116755613  0.7500001062751724  1.0000
  Mn  Mn1       1.0  0.9999999425720559  0.9999999672647512  5.080907148897691e-08  1.0000
  F   F1        1.0  0.24779398982294787  0.24779368772656002  0.7522062172885726  1.0000
  F   F2        1.0  0.7522060551622322  0.7522062771250544  0.24779379799849469  1.0000
  F   F3        1.0  0.7522060382296165  0.24779381464761574  0.2477939836759509  1.0000
  F   F4        1.0  0.247793902899265  0.7522061244834432  0.7522060295790041  1.0000
  F   F5        1.0  0.2477939733481759  0.7522060265896898  0.2477939628089439  1.0000
  F   F6        1.0  0.7522060789611058  0.24779405517352157  0.7522059789053251  1.0000
