data_image0
_chemical_formula_structural       Cu2MgCl6
_chemical_formula_sum              "Cu2 Mg1 Cl6"
_cell_length_a       6.507957235294934
_cell_length_b       6.507957332271665
_cell_length_c       6.507957234359109
_cell_angle_alpha    60.000001810519834
_cell_angle_beta     60.000001710802245
_cell_angle_gamma    60.000001047452145

_space_group_name_H-M_alt    "P 1"
_space_group_IT_number       1

loop_
  _space_group_symop_operation_xyz
  'x, y, z'

loop_
  _atom_site_type_symbol
  _atom_site_label
  _atom_site_symmetry_multiplicity
  _atom_site_fract_x
  _atom_site_fract_y
  _atom_site_fract_z
  _atom_site_occupancy
  Cu  Cu1       1.0  0.2500000066860795  0.25000000639297415  0.249999959646558  1.0000
  Cu  Cu2       1.0  0.7500000407962802  0.7499998930903503  0.7499999439075822  1.0000
  Mg  Mg1       1.0  1.1076256154850376e-08  0.9999999774169718  0.9999999750217765  1.0000
  Cl  Cl1       1.0  0.25728802457752836  0.2572880749638688  0.7427119554295601  1.0000
  Cl  Cl2       1.0  0.7427119541533257  0.7427119562537863  0.2572880457059276  1.0000
  Cl  Cl3       1.0  0.7427120096275911  0.2572880557181694  0.257288042748746  1.0000
  Cl  Cl4       1.0  0.25728798016105453  0.742711984909081  0.7427120096162677  1.0000
  Cl  Cl5       1.0  0.2572879898845544  0.7427119732864235  0.2572880693448951  1.0000
  Cl  Cl6       1.0  0.7427119783973503  0.257288078632341  0.7427119988837948  1.0000
