data_image0
_chemical_formula_structural       Cu2MgF6
_chemical_formula_sum              "Cu2 Mg1 F6"
_cell_length_a       5.217194643254828
_cell_length_b       5.217194604207948
_cell_length_c       5.217194754471821
_cell_angle_alpha    59.999999675961334
_cell_angle_beta     59.999999428990385
_cell_angle_gamma    59.999998295121344

_space_group_name_H-M_alt    "P 1"
_space_group_IT_number       1

loop_
  _space_group_symop_operation_xyz
  'x, y, z'

loop_
  _atom_site_type_symbol
  _atom_site_label
  _atom_site_symmetry_multiplicity
  _atom_site_fract_x
  _atom_site_fract_y
  _atom_site_fract_z
  _atom_site_occupancy
  Cu  Cu1       1.0  0.24999992448441247  0.2500000677246765  0.25000002886748585  1.0000
  Cu  Cu2       1.0  0.7500000454426315  0.7499999449472439  0.7500000433031135  1.0000
  Mg  Mg1       1.0  0.999999994142727  0.9999999976524838  0.9999999945187003  1.0000
  F   F1        1.0  0.2540100010056381  0.25401000423728776  0.7459900018193627  1.0000
  F   F2        1.0  0.7459900153347047  0.7459898957538538  0.2540100057312936  1.0000
  F   F3        1.0  0.7459900554376857  0.2540099881825434  0.254009917510479  1.0000
  F   F4        1.0  0.25400991862432815  0.7459900784822489  0.7459900508433837  1.0000
  F   F5        1.0  0.25400994312222636  0.745990089310307  0.2540099441105173  1.0000
  F   F6        1.0  0.7459901222434889  0.2540099092765143  0.7459900413815629  1.0000
