data_image0
_chemical_formula_structural       Cu2MnBr6
_chemical_formula_sum              "Cu2 Mn1 Br6"
_cell_length_a       7.06389123319092
_cell_length_b       7.063891312774898
_cell_length_c       7.063890646969779
_cell_angle_alpha    60.00000330786443
_cell_angle_beta     60.000003036930636
_cell_angle_gamma    60.000004039347814

_space_group_name_H-M_alt    "P 1"
_space_group_IT_number       1

loop_
  _space_group_symop_operation_xyz
  'x, y, z'

loop_
  _atom_site_type_symbol
  _atom_site_label
  _atom_site_symmetry_multiplicity
  _atom_site_fract_x
  _atom_site_fract_y
  _atom_site_fract_z
  _atom_site_occupancy
  Cu  Cu1       1.0  0.24999997084783301  0.2499999453265021  0.25000001260083204  1.0000
  Cu  Cu2       1.0  0.7500001085146231  0.7500001602020547  0.749999944752414  1.0000
  Mn  Mn1       1.0  7.580595967646038e-08  0.9999999393166376  0.9999999683726438  1.0000
  Br  Br1       1.0  0.23377246939882906  0.23377242514530783  0.7662276035556004  1.0000
  Br  Br2       1.0  0.7662274745538641  0.7662275520812769  0.23377246583440645  1.0000
  Br  Br3       1.0  0.7662275143962696  0.23377244895450464  0.23377238589742041  1.0000
  Br  Br4       1.0  0.23377240194864096  0.7662275473439939  0.766227629718852  1.0000
  Br  Br5       1.0  0.23377239843967884  0.7662275727915399  0.23377239995119764  1.0000
  Br  Br6       1.0  0.7662275901274005  0.23377240790266643  0.7662275831091855  1.0000
