data_image0
_chemical_formula_structural       Cu2MnCl6
_chemical_formula_sum              "Cu2 Mn1 Cl6"
_cell_length_a       6.60453284279627
_cell_length_b       6.604532813584354
_cell_length_c       6.604532837985732
_cell_angle_alpha    60.00000091844875
_cell_angle_beta     60.00000031075866
_cell_angle_gamma    59.999999759124094

_space_group_name_H-M_alt    "P 1"
_space_group_IT_number       1

loop_
  _space_group_symop_operation_xyz
  'x, y, z'

loop_
  _atom_site_type_symbol
  _atom_site_label
  _atom_site_symmetry_multiplicity
  _atom_site_fract_x
  _atom_site_fract_y
  _atom_site_fract_z
  _atom_site_occupancy
  Cu  Cu1       1.0  0.24999999496037048  0.2499997188691946  0.2500000866951778  1.0000
  Cu  Cu2       1.0  0.750000013208654  0.7500001468574273  0.7500000203087188  1.0000
  Mn  Mn1       1.0  2.7637166894559653e-08  4.8214412199488776e-08  2.5666899474712348e-08  1.0000
  Cl  Cl1       1.0  0.24135306432549014  0.24135302401455427  0.7586469933806126  1.0000
  Cl  Cl2       1.0  0.7586469658811069  0.7586469696656983  0.24135302348656681  1.0000
  Cl  Cl3       1.0  0.7586469585454235  0.24135300613676938  0.24135304345218833  1.0000
  Cl  Cl4       1.0  0.24135295734599257  0.7586470839723064  0.7586468703139098  1.0000
  Cl  Cl5       1.0  0.2413530251786438  0.7586470543228022  0.24135300110318547  1.0000
  Cl  Cl6       1.0  0.7586469748818596  0.24135296161025557  0.7586469546038382  1.0000
