data_image0
_chemical_formula_structural       Cu2MnBr6
_chemical_formula_sum              "Cu2 Mn1 Br6"
_cell_length_a       7.065695406467666
_cell_length_b       7.065695009515309
_cell_length_c       7.06569556830623
_cell_angle_alpha    59.999998487952
_cell_angle_beta     59.999999271662645
_cell_angle_gamma    59.99999704315725

_space_group_name_H-M_alt    "P 1"
_space_group_IT_number       1

loop_
  _space_group_symop_operation_xyz
  'x, y, z'

loop_
  _atom_site_type_symbol
  _atom_site_label
  _atom_site_symmetry_multiplicity
  _atom_site_fract_x
  _atom_site_fract_y
  _atom_site_fract_z
  _atom_site_occupancy
  Cu  Cu1       1.0  0.25000001767005925  0.2500000576320903  0.24999999503893663  1.0000
  Cu  Cu2       1.0  0.7499999361412601  0.7499999596920184  0.7500001402463715  1.0000
  Mn  Mn1       1.0  0.9999999372561734  0.9999999479989627  1.9159633087901803e-08  1.0000
  Br  Br1       1.0  0.233628387319014  0.23362839365703922  0.7663715876929876  1.0000
  Br  Br2       1.0  0.7663716132422127  0.7663715716660293  0.2336283832138047  1.0000
  Br  Br3       1.0  0.7663716299772471  0.2336284596743667  0.23362831842073287  1.0000
  Br  Br4       1.0  0.2336284292832811  0.7663715697833143  0.7663716023914137  1.0000
  Br  Br5       1.0  0.23362843930154162  0.7663715735748162  0.23362836679654464  1.0000
  Br  Br6       1.0  0.7663716011072146  0.2336284732165446  0.7663715844957137  1.0000
