data_image0
_chemical_formula_structural       Cu2MoF6
_chemical_formula_sum              "Cu2 Mo1 F6"
_cell_length_a       5.63066808408231
_cell_length_b       5.630667829247423
_cell_length_c       5.630668075859581
_cell_angle_alpha    59.9999997728982
_cell_angle_beta     60.00000041572827
_cell_angle_gamma    60.00000049403006

_space_group_name_H-M_alt    "P 1"
_space_group_IT_number       1

loop_
  _space_group_symop_operation_xyz
  'x, y, z'

loop_
  _atom_site_type_symbol
  _atom_site_label
  _atom_site_symmetry_multiplicity
  _atom_site_fract_x
  _atom_site_fract_y
  _atom_site_fract_z
  _atom_site_occupancy
  Cu  Cu1       1.0  0.24999997850608977  0.24999991128855725  0.25000001762510504  1.0000
  Cu  Cu2       1.0  0.7500000901087682  0.749999836096905  0.7500000949593166  1.0000
  Mo  Mo1       1.0  0.9999999946758951  2.8276722548073912e-08  0.9999999672118332  1.0000
  F   F1        1.0  0.24884538954991284  0.24884543981046892  0.7511545481960389  1.0000
  F   F2        1.0  0.7511545654818101  0.7511546360200029  0.2488453912458852  1.0000
  F   F3        1.0  0.7511545304006777  0.24884545053390095  0.2488454658577005  1.0000
  F   F4        1.0  0.24884545383892018  0.7511545991949816  0.7511545199827617  1.0000
  F   F5        1.0  0.24884547022275644  0.7511546059863059  0.24884542501554635  1.0000
  F   F6        1.0  0.7511544957663397  0.2488455046462878  0.7511545927779573  1.0000
