data_image0
_chemical_formula_structural       Cu2MnI6
_chemical_formula_sum              "Cu2 Mn1 I6"
_cell_length_a       7.525920107535658
_cell_length_b       7.5259201186158355
_cell_length_c       7.5259201319650275
_cell_angle_alpha    59.99999956996894
_cell_angle_beta     59.99999956545259
_cell_angle_gamma    59.999999548188576

_space_group_name_H-M_alt    "P 1"
_space_group_IT_number       1

loop_
  _space_group_symop_operation_xyz
  'x, y, z'

loop_
  _atom_site_type_symbol
  _atom_site_label
  _atom_site_symmetry_multiplicity
  _atom_site_fract_x
  _atom_site_fract_y
  _atom_site_fract_z
  _atom_site_occupancy
  Cu  Cu1       1.0  0.24999998180724375  0.24999999735426207  0.25000001494825647  1.0000
  Cu  Cu2       1.0  0.7500000049030449  0.7499999839259414  0.7500000351174292  1.0000
  Mn  Mn1       1.0  0.9999999851223722  0.9999999755894655  6.747876373887766e-08  1.0000
  I   I1        1.0  0.24207266884009868  0.24207263254142286  0.7579273610576236  1.0000
  I   I2        1.0  0.7579273533132527  0.7579273943051114  0.24207261528483542  1.0000
  I   I3        1.0  0.7579273562789265  0.2420726403415904  0.24207263239210508  1.0000
  I   I4        1.0  0.24207267447662378  0.7579273376838751  0.7579273215400713  1.0000
  I   I5        1.0  0.24207264487098373  0.757927371765141  0.24207262354078052  1.0000
  I   I6        1.0  0.7579273289905264  0.24207266647297615  0.7579273300608311  1.0000
