data_image0
_chemical_formula_structural       Cu2MgI6
_chemical_formula_sum              "Cu2 Mg1 I6"
_cell_length_a       7.738403563790773
_cell_length_b       7.738403690240317
_cell_length_c       7.738403798179446
_cell_angle_alpha    60.00000032853039
_cell_angle_beta     59.99999918149192
_cell_angle_gamma    60.00000244896817

_space_group_name_H-M_alt    "P 1"
_space_group_IT_number       1

loop_
  _space_group_symop_operation_xyz
  'x, y, z'

loop_
  _atom_site_type_symbol
  _atom_site_label
  _atom_site_symmetry_multiplicity
  _atom_site_fract_x
  _atom_site_fract_y
  _atom_site_fract_z
  _atom_site_occupancy
  Cu  Cu1       1.0  0.24999993957300914  0.25000001144426154  0.25000002515583375  1.0000
  Cu  Cu2       1.0  0.7499999949915205  0.7499999979310548  0.7500000572223661  1.0000
  Mg  Mg1       1.0  0.9999999540582363  6.17246790164738e-08  0.9999999895240304  1.0000
  I   I1        1.0  0.26199329454836434  0.2619932905694871  0.7380067212339634  1.0000
  I   I2        1.0  0.7380067176555369  0.7380066380889415  0.261993336837871  1.0000
  I   I3        1.0  0.7380066845177768  0.26199337143034235  0.26199327372059966  1.0000
  I   I4        1.0  0.261993384613502  0.7380066237008193  0.7380066347777609  1.0000
  I   I5        1.0  0.26199338504449343  0.7380066197680957  0.26199333765339783  1.0000
  I   I6        1.0  0.7380066506409924  0.2619933816938019  0.7380066205856638  1.0000
