data_image0
_chemical_formula_structural       Cu2MnCl6
_chemical_formula_sum              "Cu2 Mn1 Cl6"
_cell_length_a       6.599839942949138
_cell_length_b       6.5998401486454545
_cell_length_c       6.599839981221178
_cell_angle_alpha    59.999999963555645
_cell_angle_beta     59.999998684972994
_cell_angle_gamma    59.99999848387834

_space_group_name_H-M_alt    "P 1"
_space_group_IT_number       1

loop_
  _space_group_symop_operation_xyz
  'x, y, z'

loop_
  _atom_site_type_symbol
  _atom_site_label
  _atom_site_symmetry_multiplicity
  _atom_site_fract_x
  _atom_site_fract_y
  _atom_site_fract_z
  _atom_site_occupancy
  Cu  Cu1       1.0  0.24999994380531532  0.2500000390611107  0.24999999409145576  1.0000
  Cu  Cu2       1.0  0.749999841419243  0.7500000819246702  0.7500001691486986  1.0000
  Mn  Mn1       1.0  0.9999998622918052  1.8742761985852943e-07  2.448437961355943e-07  1.0000
  Cl  Cl1       1.0  0.24147658958554394  0.24147669306514158  0.7585233457507522  1.0000
  Cl  Cl2       1.0  0.7585234076940632  0.7585233481247191  0.241476534687917  1.0000
  Cl  Cl3       1.0  0.7585235351093005  0.24147659494289928  0.24147649666067955  1.0000
  Cl  Cl4       1.0  0.24147677213573585  0.7585231252075694  0.7585233044644283  1.0000
  Cl  Cl5       1.0  0.24147668984429804  0.7585232951600487  0.24147660500141813  1.0000
  Cl  Cl6       1.0  0.7585233736741265  0.24147663654239013  0.7585232970615534  1.0000
