data_image0
_chemical_formula_structural       Cu2MnI6
_chemical_formula_sum              "Cu2 Mn1 I6"
_cell_length_a       7.517022535258341
_cell_length_b       7.517022762602502
_cell_length_c       7.517022682028941
_cell_angle_alpha    59.99999942640501
_cell_angle_beta     60.000001061306996
_cell_angle_gamma    60.000001717673676

_space_group_name_H-M_alt    "P 1"
_space_group_IT_number       1

loop_
  _space_group_symop_operation_xyz
  'x, y, z'

loop_
  _atom_site_type_symbol
  _atom_site_label
  _atom_site_symmetry_multiplicity
  _atom_site_fract_x
  _atom_site_fract_y
  _atom_site_fract_z
  _atom_site_occupancy
  Cu  Cu1       1.0  0.24999989428689162  0.25000015697084543  0.24999988125574785  1.0000
  Cu  Cu2       1.0  0.7500001623361461  0.7500001108383111  0.7499998900388337  1.0000
  Mn  Mn1       1.0  0.9999999400595654  5.5396038951500056e-08  0.9999997149243874  1.0000
  I   I1        1.0  0.2423862021973871  0.24238620123937546  0.7576137861356053  1.0000
  I   I2        1.0  0.7576138825338438  0.7576135859277127  0.24238623803219617  1.0000
  I   I3        1.0  0.7576136861313829  0.24238630949301754  0.24238635736510944  1.0000
  I   I4        1.0  0.24238609343475626  0.7576138263432232  0.7576139004709301  1.0000
  I   I5        1.0  0.2423862494683299  0.7576136542364273  0.2423863238869489  1.0000
  I   I6        1.0  0.757613892844579  0.24238609382757448  0.7576139132039843  1.0000
