data_image0
_chemical_formula_structural       Cu2MoBr6
_chemical_formula_sum              "Cu2 Mo1 Br6"
_cell_length_a       7.175283773943793
_cell_length_b       7.175283865948183
_cell_length_c       7.1752838455046115
_cell_angle_alpha    59.99999940637467
_cell_angle_beta     59.99999952280295
_cell_angle_gamma    60.00000057096419

_space_group_name_H-M_alt    "P 1"
_space_group_IT_number       1

loop_
  _space_group_symop_operation_xyz
  'x, y, z'

loop_
  _atom_site_type_symbol
  _atom_site_label
  _atom_site_symmetry_multiplicity
  _atom_site_fract_x
  _atom_site_fract_y
  _atom_site_fract_z
  _atom_site_occupancy
  Cu  Cu1       1.0  0.25000006461769136  0.24999997399060342  0.2500000177571876  1.0000
  Cu  Cu2       1.0  0.7500000307305772  0.7499999526959016  0.7499999452616296  1.0000
  Mo  Mo1       1.0  7.006065032773452e-09  0.9999999982931057  5.170366509860316e-08  1.0000
  Br  Br1       1.0  0.24730220171979567  0.2473022363823873  0.7526977869828817  1.0000
  Br  Br2       1.0  0.7526977460938847  0.7526977756488145  0.24730227263351626  1.0000
  Br  Br3       1.0  0.752697724662531  0.24730227144179953  0.24730222862183263  1.0000
  Br  Br4       1.0  0.2473022823206005  0.7526977320549334  0.7526977234503619  1.0000
  Br  Br5       1.0  0.2473022219003588  0.7526977852146115  0.2473022363821189  1.0000
  Br  Br6       1.0  0.752697720109308  0.24730227802340968  0.7526977392112599  1.0000
