data_image0
_chemical_formula_structural       Cu2NbCl6
_chemical_formula_sum              "Cu2 Nb1 Cl6"
_cell_length_a       6.810799769137604
_cell_length_b       6.810799472344388
_cell_length_c       6.8107998137849695
_cell_angle_alpha    60.000000758021386
_cell_angle_beta     60.000001478348324
_cell_angle_gamma    60.00000026531254

_space_group_name_H-M_alt    "P 1"
_space_group_IT_number       1

loop_
  _space_group_symop_operation_xyz
  'x, y, z'

loop_
  _atom_site_type_symbol
  _atom_site_label
  _atom_site_symmetry_multiplicity
  _atom_site_fract_x
  _atom_site_fract_y
  _atom_site_fract_z
  _atom_site_occupancy
  Cu  Cu1       1.0  0.2500000013033952  0.2500001671859839  0.25000000326573446  1.0000
  Cu  Cu2       1.0  0.750000091380659  0.7499997966480616  0.7500001291118324  1.0000
  Nb  Nb1       1.0  0.999999987670946  0.9999999352633767  0.9999999930168908  1.0000
  Cl  Cl1       1.0  0.24713195340365174  0.24713187236590736  0.7528680575322763  1.0000
  Cl  Cl2       1.0  0.7528680277603216  0.7528681310294029  0.24713192582439916  1.0000
  Cl  Cl3       1.0  0.7528680825960458  0.24713197522285263  0.24713183600470323  1.0000
  Cl  Cl4       1.0  0.24713187818787985  0.7528680893126006  0.7528681108211057  1.0000
  Cl  Cl5       1.0  0.24713185950606428  0.7528681092687994  0.24713190090223153  1.0000
  Cl  Cl6       1.0  0.7528681137626944  0.24713192289834224  0.7528680338414713  1.0000
