data_image0
_chemical_formula_structural       Cu2NbBr6
_chemical_formula_sum              "Cu2 Nb1 Br6"
_cell_length_a       7.298146907019012
_cell_length_b       7.298146725741608
_cell_length_c       7.298146734066261
_cell_angle_alpha    60.00000071966366
_cell_angle_beta     60.000000788834946
_cell_angle_gamma    59.99999963331673

_space_group_name_H-M_alt    "P 1"
_space_group_IT_number       1

loop_
  _space_group_symop_operation_xyz
  'x, y, z'

loop_
  _atom_site_type_symbol
  _atom_site_label
  _atom_site_symmetry_multiplicity
  _atom_site_fract_x
  _atom_site_fract_y
  _atom_site_fract_z
  _atom_site_occupancy
  Cu  Cu1       1.0  0.24999988837651438  0.25000008596784934  0.24999993520238478  1.0000
  Cu  Cu2       1.0  0.7499999979996268  0.7500000045015792  0.7499999823664131  1.0000
  Nb  Nb1       1.0  0.9999999982093983  3.859765131422945e-08  2.5443223302214447e-08  1.0000
  Br  Br1       1.0  0.24577874346899234  0.24577876252404143  0.7542212122367911  1.0000
  Br  Br2       1.0  0.7542213125380778  0.7542212272558624  0.24577871470805226  1.0000
  Br  Br3       1.0  0.7542213214094966  0.24577868057336516  0.2457787218541258  1.0000
  Br  Br4       1.0  0.24577865429013318  0.7542212890686348  0.7542213361558306  1.0000
  Br  Br5       1.0  0.24577876204415938  0.7542212125517307  0.2457787795454222  1.0000
  Br  Br6       1.0  0.7542213182084706  0.24577869499839602  0.7542212942296642  1.0000
