data_image0
_chemical_formula_structural       Cu2NiI6
_chemical_formula_sum              "Cu2 Ni1 I6"
_cell_length_a       7.374961002792273
_cell_length_b       7.374960995652306
_cell_length_c       7.374960907385784
_cell_angle_alpha    60.00000106805247
_cell_angle_beta     60.00000085734597
_cell_angle_gamma    60.00000092947686

_space_group_name_H-M_alt    "P 1"
_space_group_IT_number       1

loop_
  _space_group_symop_operation_xyz
  'x, y, z'

loop_
  _atom_site_type_symbol
  _atom_site_label
  _atom_site_symmetry_multiplicity
  _atom_site_fract_x
  _atom_site_fract_y
  _atom_site_fract_z
  _atom_site_occupancy
  Cu  Cu1       1.0  0.25000009450677385  0.2500000075288055  0.24999993700332088  1.0000
  Cu  Cu2       1.0  0.7499999855319045  0.7499999395524276  0.7500000950809823  1.0000
  Ni  Ni1       1.0  0.9999999961250805  1.162475838976889e-08  0.9999999920572624  1.0000
  I   I1        1.0  0.25416904383474753  0.25416905411737484  0.7458309345112043  1.0000
  I   I2        1.0  0.7458309457241219  0.7458309577303687  0.2541690195818091  1.0000
  I   I3        1.0  0.74583092016471  0.25416909067501636  0.25416901421549737  1.0000
  I   I4        1.0  0.2541690524563443  0.7458309062266094  0.7458309937857852  1.0000
  I   I5        1.0  0.2541690648956019  0.7458309846514594  0.25416902152660925  1.0000
  I   I6        1.0  0.7458308948985982  0.2541690554278406  0.7458309835027181  1.0000
