data_image0
_chemical_formula_structural       Cu2NiBr6
_chemical_formula_sum              "Cu2 Ni1 Br6"
_cell_length_a       6.833376417821934
_cell_length_b       6.833376396638433
_cell_length_c       6.8333763140026775
_cell_angle_alpha    60.00000095697413
_cell_angle_beta     59.99999987847179
_cell_angle_gamma    59.99999927838548

_space_group_name_H-M_alt    "P 1"
_space_group_IT_number       1

loop_
  _space_group_symop_operation_xyz
  'x, y, z'

loop_
  _atom_site_type_symbol
  _atom_site_label
  _atom_site_symmetry_multiplicity
  _atom_site_fract_x
  _atom_site_fract_y
  _atom_site_fract_z
  _atom_site_occupancy
  Cu  Cu1       1.0  0.2500000502693715  0.25000001639564917  0.24999999185730806  1.0000
  Cu  Cu2       1.0  0.7500000754527066  0.7499998950492981  0.7500001078793177  1.0000
  Ni  Ni1       1.0  0.999999978697428  5.37689468370211e-08  0.9999998359628646  1.0000
  Br  Br1       1.0  0.24706965617277904  0.24706968121884199  0.7529303071785368  1.0000
  Br  Br2       1.0  0.7529302414591281  0.7529303467254935  0.2470696478669381  1.0000
  Br  Br3       1.0  0.7529302587889469  0.24706978188376028  0.24706966502221367  1.0000
  Br  Br4       1.0  0.2470695804322244  0.7529303553907708  0.7529303830993717  1.0000
  Br  Br5       1.0  0.24706976803645034  0.7529302380891665  0.2470696955913912  1.0000
  Br  Br6       1.0  0.7529303865322339  0.24706963750981492  0.752930372523184  1.0000
