data_image0
_chemical_formula_structural       Cu2NbI6
_chemical_formula_sum              "Cu2 Nb1 I6"
_cell_length_a       7.8792500788524436
_cell_length_b       7.8792502008264895
_cell_length_c       7.8792503656667625
_cell_angle_alpha    59.99999953791036
_cell_angle_beta     59.999999159267325
_cell_angle_gamma    60.00000054363081

_space_group_name_H-M_alt    "P 1"
_space_group_IT_number       1

loop_
  _space_group_symop_operation_xyz
  'x, y, z'

loop_
  _atom_site_type_symbol
  _atom_site_label
  _atom_site_symmetry_multiplicity
  _atom_site_fract_x
  _atom_site_fract_y
  _atom_site_fract_z
  _atom_site_occupancy
  Cu  Cu1       1.0  0.25000005714761675  0.2500000642388668  0.24999993626079656  1.0000
  Cu  Cu2       1.0  0.7500000131872037  0.7500000124070499  0.7499999044539238  1.0000
  Nb  Nb1       1.0  7.50527172937583e-08  0.9999999067364407  1.418204611505917e-08  1.0000
  I   I1        1.0  0.24779141053706544  0.24779137545343083  0.75220859851266  1.0000
  I   I2        1.0  0.7522085759546795  0.7522086405711714  0.24779141089013146  1.0000
  I   I3        1.0  0.7522085557251491  0.2477913928986978  0.24779150536299566  1.0000
  I   I4        1.0  0.2477913999480497  0.7522085485150564  0.752208643057119  1.0000
  I   I5        1.0  0.24779136189187664  0.7522086131772446  0.24779144721117882  1.0000
  I   I6        1.0  0.7522085406957848  0.24779144792474417  0.752208549876054  1.0000
