data_image0
_chemical_formula_structural       Cu2NiBr6
_chemical_formula_sum              "Cu2 Ni1 Br6"
_cell_length_a       6.836278039933464
_cell_length_b       6.83627794293091
_cell_length_c       6.836277985467194
_cell_angle_alpha    60.00000174710051
_cell_angle_beta     60.00000113933328
_cell_angle_gamma    60.00000158280137

_space_group_name_H-M_alt    "P 1"
_space_group_IT_number       1

loop_
  _space_group_symop_operation_xyz
  'x, y, z'

loop_
  _atom_site_type_symbol
  _atom_site_label
  _atom_site_symmetry_multiplicity
  _atom_site_fract_x
  _atom_site_fract_y
  _atom_site_fract_z
  _atom_site_occupancy
  Cu  Cu1       1.0  0.24999993254069608  0.24999999026745662  0.2500001049774811  1.0000
  Cu  Cu2       1.0  0.7500000951719948  0.7500000155908058  0.7499998950899464  1.0000
  Ni  Ni1       1.0  1.501435933769547e-08  0.9999999802930856  0.9999999087280832  1.0000
  Br  Br1       1.0  0.2469782310731868  0.24697820076981852  0.753021734435631  1.0000
  Br  Br2       1.0  0.7530217613737906  0.7530217943392185  0.24697829156483395  1.0000
  Br  Br3       1.0  0.7530217774325891  0.2469782074974169  0.24697828428844776  1.0000
  Br  Br4       1.0  0.24697818032827457  0.7530218055269958  0.7530217837414248  1.0000
  Br  Br5       1.0  0.24697817049080972  0.7530218013730544  0.24697827592479385  1.0000
  Br  Br6       1.0  0.7530218367656075  0.24697818477829483  0.7530217339847365  1.0000
