data_image0
_chemical_formula_structural       Cu2NbCl6
_chemical_formula_sum              "Cu2 Nb1 Cl6"
_cell_length_a       6.810770844088133
_cell_length_b       6.810770771375299
_cell_length_c       6.810770720471849
_cell_angle_alpha    60.00000230930971
_cell_angle_beta     59.999998008446916
_cell_angle_gamma    60.00000407023732

_space_group_name_H-M_alt    "P 1"
_space_group_IT_number       1

loop_
  _space_group_symop_operation_xyz
  'x, y, z'

loop_
  _atom_site_type_symbol
  _atom_site_label
  _atom_site_symmetry_multiplicity
  _atom_site_fract_x
  _atom_site_fract_y
  _atom_site_fract_z
  _atom_site_occupancy
  Cu  Cu1       1.0  0.24999996594545537  0.24999983421986563  0.25000019725514805  1.0000
  Cu  Cu2       1.0  0.7500000360952273  0.7500001356425435  0.7499999433255402  1.0000
  Nb  Nb1       1.0  3.5603471631387914e-08  5.0834257085200305e-15  9.378621937042944e-08  1.0000
  Cl  Cl1       1.0  0.24713179666995527  0.24713194700954516  0.752868157934829  1.0000
  Cl  Cl2       1.0  0.7528681295212081  0.7528681181599517  0.24713193033746259  1.0000
  Cl  Cl3       1.0  0.7528681529947334  0.24713181978758483  0.24713182212680473  1.0000
  Cl  Cl4       1.0  0.24713188617443585  0.7528680997239035  0.752868148873586  1.0000
  Cl  Cl5       1.0  0.24713192788813101  0.7528681261063003  0.2471317787532291  1.0000
  Cl  Cl6       1.0  0.7528680666334061  0.2471319120894819  0.7528679320529165  1.0000
