data_image0
_chemical_formula_structural       Cu2NbI6
_chemical_formula_sum              "Cu2 Nb1 I6"
_cell_length_a       7.878947333056473
_cell_length_b       7.878947439816404
_cell_length_c       7.8789476895316914
_cell_angle_alpha    59.99999972132973
_cell_angle_beta     59.99999994652343
_cell_angle_gamma    60.000001871133314

_space_group_name_H-M_alt    "P 1"
_space_group_IT_number       1

loop_
  _space_group_symop_operation_xyz
  'x, y, z'

loop_
  _atom_site_type_symbol
  _atom_site_label
  _atom_site_symmetry_multiplicity
  _atom_site_fract_x
  _atom_site_fract_y
  _atom_site_fract_z
  _atom_site_occupancy
  Cu  Cu1       1.0  0.2500000002199016  0.2499999025539003  0.25000007376577715  1.0000
  Cu  Cu2       1.0  0.7499999885592099  0.7500000605223922  0.7500000534556454  1.0000
  Nb  Nb1       1.0  0.999999970170814  1.554451891203267e-09  4.840590239643986e-08  1.0000
  I   I1        1.0  0.24779631999470716  0.2477963699575952  0.7522036287665881  1.0000
  I   I2        1.0  0.7522035881485495  0.7522036459700765  0.24779635623485338  1.0000
  I   I3        1.0  0.7522036353026804  0.24779639960556096  0.24779640259652813  1.0000
  I   I4        1.0  0.24779641405169825  0.7522036147676612  0.752203527807039  1.0000
  I   I5        1.0  0.24779645632579808  0.7522036022357002  0.24779636662628074  1.0000
  I   I6        1.0  0.7522036244122192  0.24779640591971294  0.7522035321562967  1.0000
