data_image0
_chemical_formula_structural       Cu2NiI6
_chemical_formula_sum              "Cu2 Ni1 I6"
_cell_length_a       7.372262940491754
_cell_length_b       7.372263002632714
_cell_length_c       7.372262932408702
_cell_angle_alpha    60.00000030220432
_cell_angle_beta     60.00000006467589
_cell_angle_gamma    60.000000043409926

_space_group_name_H-M_alt    "P 1"
_space_group_IT_number       1

loop_
  _space_group_symop_operation_xyz
  'x, y, z'

loop_
  _atom_site_type_symbol
  _atom_site_label
  _atom_site_symmetry_multiplicity
  _atom_site_fract_x
  _atom_site_fract_y
  _atom_site_fract_z
  _atom_site_occupancy
  Cu  Cu1       1.0  0.2500000359657056  0.25000000429413827  0.24999995057265936  1.0000
  Cu  Cu2       1.0  0.7499999977039689  0.7500000145437026  0.750000057904697  1.0000
  Ni  Ni1       1.0  0.9999999745595266  1.993545055762466e-08  1.631686756304895e-08  1.0000
  I   I1        1.0  0.25424079684119233  0.254240816053237  0.7457591851172534  1.0000
  I   I2        1.0  0.7457591766611853  0.7457592094297544  0.25424074838850486  1.0000
  I   I3        1.0  0.745759197617444  0.2542407648399809  0.2542408281371217  1.0000
  I   I4        1.0  0.2542408284434692  0.7457591875463585  0.7457591821030399  1.0000
  I   I5        1.0  0.2542408313774909  0.7457592159128569  0.2542407828543698  1.0000
  I   I6        1.0  0.7457591628828306  0.25424076139279556  0.7457592430343516  1.0000
