data_image0
_chemical_formula_structural       Cu2NbF6
_chemical_formula_sum              "Cu2 Nb1 F6"
_cell_length_a       5.867228228488162
_cell_length_b       5.867229799305699
_cell_length_c       5.867228995663557
_cell_angle_alpha    60.00000294443225
_cell_angle_beta     60.00000170420968
_cell_angle_gamma    60.000004014718705

_space_group_name_H-M_alt    "P 1"
_space_group_IT_number       1

loop_
  _space_group_symop_operation_xyz
  'x, y, z'

loop_
  _atom_site_type_symbol
  _atom_site_label
  _atom_site_symmetry_multiplicity
  _atom_site_fract_x
  _atom_site_fract_y
  _atom_site_fract_z
  _atom_site_occupancy
  Cu  Cu1       1.0  0.24999994658609048  0.2500000120149764  0.2500000635512239  1.0000
  Cu  Cu2       1.0  0.7500000512743105  0.7500000214328991  0.7499999711905488  1.0000
  Nb  Nb1       1.0  4.596098877687993e-08  0.9999999979125653  0.999999995107046  1.0000
  F   F1        1.0  0.2374016981101733  0.2374015834197718  0.7625983969201618  1.0000
  F   F2        1.0  0.7625983324328649  0.7625983874051181  0.23740166131369767  1.0000
  F   F3        1.0  0.762598327891728  0.2374016417434812  0.23740157738250353  1.0000
  F   F4        1.0  0.2374016404683775  0.7625983562180415  0.7625983824765209  1.0000
  F   F5        1.0  0.23740154478414763  0.7625984235536744  0.23740168415203639  1.0000
  F   F6        1.0  0.7625984157037567  0.23740157440784662  0.7625983273657874  1.0000
