data_image0
_chemical_formula_structural       Cu2NiCl6
_chemical_formula_sum              "Cu2 Ni1 Cl6"
_cell_length_a       6.44346848025473
_cell_length_b       6.443468335338424
_cell_length_c       6.443468619244403
_cell_angle_alpha    59.999999219935816
_cell_angle_beta     59.99999945739817
_cell_angle_gamma    59.99999999686051

_space_group_name_H-M_alt    "P 1"
_space_group_IT_number       1

loop_
  _space_group_symop_operation_xyz
  'x, y, z'

loop_
  _atom_site_type_symbol
  _atom_site_label
  _atom_site_symmetry_multiplicity
  _atom_site_fract_x
  _atom_site_fract_y
  _atom_site_fract_z
  _atom_site_occupancy
  Cu  Cu1       1.0  0.25000008802221035  0.2500000617925475  0.2499998848513275  1.0000
  Cu  Cu2       1.0  0.7500001026426941  0.749999879356234  0.7500001521097069  1.0000
  Ni  Ni1       1.0  3.711133122690204e-08  0.9999998080238366  1.8457967936871192e-08  1.0000
  Cl  Cl1       1.0  0.2489261865231157  0.24892624567907445  0.7510737530211137  1.0000
  Cl  Cl2       1.0  0.7510737883318762  0.7510739235601948  0.248926094668456  1.0000
  Cl  Cl3       1.0  0.751073684237078  0.24892629626659216  0.24892624181700415  1.0000
  Cl  Cl4       1.0  0.2489261365918326  0.7510738995832346  0.7510739085820342  1.0000
  Cl  Cl5       1.0  0.248926192967112  0.7510737439908403  0.2489261366994667  1.0000
  Cl  Cl6       1.0  0.7510737875405888  0.24892612873079037  0.7510738222794651  1.0000
