data_image0
_chemical_formula_structural       Cu2NiCl6
_chemical_formula_sum              "Cu2 Ni1 Cl6"
_cell_length_a       6.444004781227333
_cell_length_b       6.444004714806439
_cell_length_c       6.444004730707832
_cell_angle_alpha    59.99999768586252
_cell_angle_beta     60.00000048558982
_cell_angle_gamma    59.99999895082819

_space_group_name_H-M_alt    "P 1"
_space_group_IT_number       1

loop_
  _space_group_symop_operation_xyz
  'x, y, z'

loop_
  _atom_site_type_symbol
  _atom_site_label
  _atom_site_symmetry_multiplicity
  _atom_site_fract_x
  _atom_site_fract_y
  _atom_site_fract_z
  _atom_site_occupancy
  Cu  Cu1       1.0  0.24999999524178876  0.24999997260477894  0.2499999788668791  1.0000
  Cu  Cu2       1.0  0.7500001272853843  0.7499999178143323  0.7500000442810835  1.0000
  Ni  Ni1       1.0  0.9999999707147345  0.9999999695904663  0.9999999879479895  1.0000
  Cl  Cl1       1.0  0.24882405197850274  0.24882414635357047  0.7511760055794797  1.0000
  Cl  Cl2       1.0  0.751175926867462  0.7511759493299002  0.24882396194762318  1.0000
  Cl  Cl3       1.0  0.7511759157399119  0.24882413124241815  0.24882403280241402  1.0000
  Cl  Cl4       1.0  0.2488240568980796  0.7511759454350942  0.7511759069840743  1.0000
  Cl  Cl5       1.0  0.24882406321009726  0.7511759015603605  0.24882410647301922  1.0000
  Cl  Cl6       1.0  0.7511758832388924  0.24882407628616243  0.7511759625521575  1.0000
