data_image0
_chemical_formula_structural       Cu2NbBr6
_chemical_formula_sum              "Cu2 Nb1 Br6"
_cell_length_a       7.297989414311315
_cell_length_b       7.297989478777959
_cell_length_c       7.297989285108086
_cell_angle_alpha    60.00000056756798
_cell_angle_beta     60.000000368469976
_cell_angle_gamma    60.0000003785589

_space_group_name_H-M_alt    "P 1"
_space_group_IT_number       1

loop_
  _space_group_symop_operation_xyz
  'x, y, z'

loop_
  _atom_site_type_symbol
  _atom_site_label
  _atom_site_symmetry_multiplicity
  _atom_site_fract_x
  _atom_site_fract_y
  _atom_site_fract_z
  _atom_site_occupancy
  Cu  Cu1       1.0  0.24999999200905043  0.2499998801584842  0.2500000844935547  1.0000
  Cu  Cu2       1.0  0.7499999539335025  0.7500000247820819  0.7500000120835939  1.0000
  Nb  Nb1       1.0  1.777183390347271e-08  8.390974555329564e-09  0.9999999348494593  1.0000
  Br  Br1       1.0  0.2457836338175001  0.2457836222567311  0.7542163730236822  1.0000
  Br  Br2       1.0  0.7542163320686113  0.7542163984792825  0.24578364335179903  1.0000
  Br  Br3       1.0  0.7542163744584084  0.2457836206142987  0.2457835866990893  1.0000
  Br  Br4       1.0  0.24578360629010076  0.7542164504675616  0.7542163888508271  1.0000
  Br  Br5       1.0  0.24578365080082334  0.7542164199530027  0.24578357042459784  1.0000
  Br  Br6       1.0  0.7542164441882008  0.24578357896647704  0.7542164046398578  1.0000
