data_image0
_chemical_formula_structural       Cu2OsF6
_chemical_formula_sum              "Cu2 Os1 F6"
_cell_length_a       5.556487045653355
_cell_length_b       5.55648660889039
_cell_length_c       5.556486724212357
_cell_angle_alpha    60.000000165367666
_cell_angle_beta     60.00000001235475
_cell_angle_gamma    59.99999797210473

_space_group_name_H-M_alt    "P 1"
_space_group_IT_number       1

loop_
  _space_group_symop_operation_xyz
  'x, y, z'

loop_
  _atom_site_type_symbol
  _atom_site_label
  _atom_site_symmetry_multiplicity
  _atom_site_fract_x
  _atom_site_fract_y
  _atom_site_fract_z
  _atom_site_occupancy
  Cu  Cu1       1.0  0.24999993035910492  0.24999999575550957  0.2500000075855031  1.0000
  Cu  Cu2       1.0  0.7499999970625724  0.7499999740414999  0.7500000055631195  1.0000
  Os  Os1       1.0  1.4546789129962856e-08  0.999999999999999  0.9999999387356552  1.0000
  F   F1        1.0  0.2473777081931207  0.24737777202362735  0.7526223129623081  1.0000
  F   F2        1.0  0.7526223088178814  0.7526222220192683  0.24737774405181553  1.0000
  F   F3        1.0  0.7526222706124107  0.24737771021496122  0.24737774751263075  1.0000
  F   F4        1.0  0.24737779677752975  0.7526222573778759  0.7526222273488162  1.0000
  F   F5        1.0  0.24737775511521942  0.752622292951923  0.24737767941312935  1.0000
  F   F6        1.0  0.7526222478099729  0.24737774958274228  0.7526222920094776  1.0000
