data_image0
_chemical_formula_structural       Cu2OsI6
_chemical_formula_sum              "Cu2 Os1 I6"
_cell_length_a       7.542909648516254
_cell_length_b       7.54290962778844
_cell_length_c       7.542909616472343
_cell_angle_alpha    60.00000010966117
_cell_angle_beta     59.99999974121111
_cell_angle_gamma    60.00000003730416

_space_group_name_H-M_alt    "P 1"
_space_group_IT_number       1

loop_
  _space_group_symop_operation_xyz
  'x, y, z'

loop_
  _atom_site_type_symbol
  _atom_site_label
  _atom_site_symmetry_multiplicity
  _atom_site_fract_x
  _atom_site_fract_y
  _atom_site_fract_z
  _atom_site_occupancy
  Cu  Cu1       1.0  0.24999997743218796  0.250000010610579  0.250000002919922  1.0000
  Cu  Cu2       1.0  0.7499999832017379  0.7499999847443359  0.7499999988963894  1.0000
  Os  Os1       1.0  0.9999999725217668  2.2731848815391223e-08  0.9999999851384637  1.0000
  I   I1        1.0  0.2519629369822185  0.2519629555683883  0.7480370561978015  1.0000
  I   I2        1.0  0.7480370589380094  0.7480370625183758  0.2519629603591299  1.0000
  I   I3        1.0  0.748037046715324  0.2519629521775011  0.25196295016229453  1.0000
  I   I4        1.0  0.25196296777666694  0.7480370285640826  0.7480370439633849  1.0000
  I   I5        1.0  0.2519630047260293  0.7480370063697883  0.2519629722979137  1.0000
  I   I6        1.0  0.7480370552428582  0.25196297112438837  0.7480370378339747  1.0000
