data_image0
_chemical_formula_structural       Cu2OsBr6
_chemical_formula_sum              "Cu2 Os1 Br6"
_cell_length_a       7.125263583033062
_cell_length_b       7.1252635817562195
_cell_length_c       7.125263716952447
_cell_angle_alpha    59.99999928693152
_cell_angle_beta     59.99999956279508
_cell_angle_gamma    60.000000093742955

_space_group_name_H-M_alt    "P 1"
_space_group_IT_number       1

loop_
  _space_group_symop_operation_xyz
  'x, y, z'

loop_
  _atom_site_type_symbol
  _atom_site_label
  _atom_site_symmetry_multiplicity
  _atom_site_fract_x
  _atom_site_fract_y
  _atom_site_fract_z
  _atom_site_occupancy
  Cu  Cu1       1.0  0.2500000004601147  0.2500000711182897  0.24999997443612976  1.0000
  Cu  Cu2       1.0  0.7499999979146443  0.7499999417723677  0.749999958380142  1.0000
  Os  Os1       1.0  0.9999999751353216  0.9999999724979743  2.6183352024877513e-08  1.0000
  Br  Br1       1.0  0.24555864650828116  0.24555865300100393  0.7544413424362791  1.0000
  Br  Br2       1.0  0.7544413404241671  0.7544413650462831  0.2455586622922175  1.0000
  Br  Br3       1.0  0.7544413329500607  0.2455586839618227  0.24555866100471074  1.0000
  Br  Br4       1.0  0.2455587007009405  0.7544413203344519  0.754441342678041  1.0000
  Br  Br5       1.0  0.24555866106997684  0.754441295398838  0.24555870422267437  1.0000
  Br  Br6       1.0  0.7544413480926964  0.2455586899897939  0.7544413323857173  1.0000
