data_image0
_chemical_formula_structural       Cu2OsCl6
_chemical_formula_sum              "Cu2 Os1 Cl6"
_cell_length_a       6.685497102036325
_cell_length_b       6.685497052068867
_cell_length_c       6.685497082874282
_cell_angle_alpha    59.99999927628773
_cell_angle_beta     59.999998530105444
_cell_angle_gamma    60.000000711457716

_space_group_name_H-M_alt    "P 1"
_space_group_IT_number       1

loop_
  _space_group_symop_operation_xyz
  'x, y, z'

loop_
  _atom_site_type_symbol
  _atom_site_label
  _atom_site_symmetry_multiplicity
  _atom_site_fract_x
  _atom_site_fract_y
  _atom_site_fract_z
  _atom_site_occupancy
  Cu  Cu1       1.0  0.2499998132359071  0.2500001707504568  0.25000005760406435  1.0000
  Cu  Cu2       1.0  0.7500001595646875  0.749999927861603  0.7500001364898645  1.0000
  Os  Os1       1.0  4.045835710837366e-08  0.9999999615292001  0.9999999631076188  1.0000
  Cl  Cl1       1.0  0.2449435372369999  0.24494355554209116  0.7550564477306824  1.0000
  Cl  Cl2       1.0  0.7550563917227987  0.7550564569686523  0.2449435495736628  1.0000
  Cl  Cl3       1.0  0.7550564954752137  0.2449435365449605  0.24494348953632106  1.0000
  Cl  Cl4       1.0  0.2449435402041125  0.7550564045200127  0.7550564647029679  1.0000
  Cl  Cl5       1.0  0.24494357728565885  0.7550564469422085  0.24494354662286394  1.0000
  Cl  Cl6       1.0  0.7550564552176843  0.24494353992133644  0.7550563504065283  1.0000
