data_image0
_chemical_formula_structural       Cu2PtCl6
_chemical_formula_sum              "Cu2 Pt1 Cl6"
_cell_length_a       6.668222110385089
_cell_length_b       6.668222076703179
_cell_length_c       6.66822185776381
_cell_angle_alpha    60.00000096147273
_cell_angle_beta     60.00000085747793
_cell_angle_gamma    60.00000320549938

_space_group_name_H-M_alt    "P 1"
_space_group_IT_number       1

loop_
  _space_group_symop_operation_xyz
  'x, y, z'

loop_
  _atom_site_type_symbol
  _atom_site_label
  _atom_site_symmetry_multiplicity
  _atom_site_fract_x
  _atom_site_fract_y
  _atom_site_fract_z
  _atom_site_occupancy
  Cu  Cu1       1.0  0.24999996516071663  0.25000001901207364  0.2500000055984592  1.0000
  Cu  Cu2       1.0  0.7500000165233817  0.7500000056089396  0.750000019479656  1.0000
  Pt  Pt1       1.0  2.2808511863308112e-08  1.4693510697127607e-08  0.9999999722510876  1.0000
  Cl  Cl1       1.0  0.24594275076948444  0.24594282858018102  0.7540571871985502  1.0000
  Cl  Cl2       1.0  0.754057218093837  0.7540571721638782  0.24594274975326905  1.0000
  Cl  Cl3       1.0  0.7540571836538319  0.24594279064824465  0.24594287580663143  1.0000
  Cl  Cl4       1.0  0.24594288933639943  0.7540571678519764  0.7540571456767143  1.0000
  Cl  Cl5       1.0  0.24594283166018496  0.754057211890649  0.24594281822883265  1.0000
  Cl  Cl6       1.0  0.7540571281427565  0.24594277966996608  0.7540572208232087  1.0000
