data_image0
_chemical_formula_structural       Cu2PdI6
_chemical_formula_sum              "Cu2 Pd1 I6"
_cell_length_a       7.470908190017904
_cell_length_b       7.4709081884088056
_cell_length_c       7.4709082323434295
_cell_angle_alpha    59.99999958231263
_cell_angle_beta     59.999999370706995
_cell_angle_gamma    60.000000247650284

_space_group_name_H-M_alt    "P 1"
_space_group_IT_number       1

loop_
  _space_group_symop_operation_xyz
  'x, y, z'

loop_
  _atom_site_type_symbol
  _atom_site_label
  _atom_site_symmetry_multiplicity
  _atom_site_fract_x
  _atom_site_fract_y
  _atom_site_fract_z
  _atom_site_occupancy
  Cu  Cu1       1.0  0.24999998298459578  0.250000005225614  0.24999994893275118  1.0000
  Cu  Cu2       1.0  0.7499999849873594  0.749999963217576  0.7500000758677821  1.0000
  Pd  Pd1       1.0  1.8812333736314353e-08  1.3114816591400195e-08  4.1143048877294275e-09  1.0000
  I   I1        1.0  0.25594103970754856  0.25594104785052485  0.7440589693447031  1.0000
  I   I2        1.0  0.7440589448909378  0.7440589402648901  0.2559410292753001  1.0000
  I   I3        1.0  0.7440589707002073  0.25594106102256003  0.2559410267232008  1.0000
  I   I4        1.0  0.2559410465272202  0.7440589451257277  0.7440589519199964  1.0000
  I   I5        1.0  0.2559410641881355  0.7440589635783574  0.2559410335237988  1.0000
  I   I6        1.0  0.7440589470283345  0.2559410606028029  0.744058963201897  1.0000
