data_image0
_chemical_formula_structural       Cu2PtI6
_chemical_formula_sum              "Cu2 Pt1 I6"
_cell_length_a       7.50020073048826
_cell_length_b       7.5002006862331845
_cell_length_c       7.500200798631742
_cell_angle_alpha    59.999999692374764
_cell_angle_beta     59.99999947595394
_cell_angle_gamma    59.999999164337304

_space_group_name_H-M_alt    "P 1"
_space_group_IT_number       1

loop_
  _space_group_symop_operation_xyz
  'x, y, z'

loop_
  _atom_site_type_symbol
  _atom_site_label
  _atom_site_symmetry_multiplicity
  _atom_site_fract_x
  _atom_site_fract_y
  _atom_site_fract_z
  _atom_site_occupancy
  Cu  Cu1       1.0  0.24999996556585657  0.2500000758796124  0.2499999793016193  1.0000
  Cu  Cu2       1.0  0.7499999977216125  0.7499999892282132  0.7499999545995403  1.0000
  Pt  Pt1       1.0  0.9999999912749126  5.3887332773438216e-08  0.9999999827520679  1.0000
  I   I1        1.0  0.2533020897543176  0.2533020906121496  0.7466979165979398  1.0000
  I   I2        1.0  0.7466979151493286  0.7466978912152527  0.25330211146671266  1.0000
  I   I3        1.0  0.7466979115632355  0.2533020773006556  0.25330209772964474  1.0000
  I   I4        1.0  0.25330210432013067  0.7466978669689085  0.7466979342909832  1.0000
  I   I5        1.0  0.25330208190966097  0.7466978867284105  0.25330212137705466  1.0000
  I   I6        1.0  0.7466979399451634  0.2533020673388506  0.7466979040922934  1.0000
