data_image0
_chemical_formula_structural       Cu2PbBr6
_chemical_formula_sum              "Cu2 Pb1 Br6"
_cell_length_a       7.2125402474833775
_cell_length_b       7.2125401640788676
_cell_length_c       7.212540166614438
_cell_angle_alpha    60.00000118377468
_cell_angle_beta     60.00000056875648
_cell_angle_gamma    59.99999998572209

_space_group_name_H-M_alt    "P 1"
_space_group_IT_number       1

loop_
  _space_group_symop_operation_xyz
  'x, y, z'

loop_
  _atom_site_type_symbol
  _atom_site_label
  _atom_site_symmetry_multiplicity
  _atom_site_fract_x
  _atom_site_fract_y
  _atom_site_fract_z
  _atom_site_occupancy
  Cu  Cu1       1.0  0.24999992526148038  0.2500000270863351  0.25000003709174046  1.0000
  Cu  Cu2       1.0  0.7500000271050642  0.7499999708839988  0.7500000560536275  1.0000
  Pb  Pb1       1.0  0.9999999798339675  2.207500071882247e-08  0.99999996299719  1.0000
  Br  Br1       1.0  0.2640309616477588  0.26403094653524356  0.7359690394527123  1.0000
  Br  Br2       1.0  0.7359690352710501  0.7359690378504726  0.264030931450328  1.0000
  Br  Br3       1.0  0.735969059407624  0.26403095267363164  0.26403093421662865  1.0000
  Br  Br4       1.0  0.2640309256079832  0.7359690962390111  0.7359690311716611  1.0000
  Br  Br5       1.0  0.26403098983190887  0.7359689968022046  0.2640309629763858  1.0000
  Br  Br6       1.0  0.735969097420594  0.2640309519238948  0.735969048526846  1.0000
