data_image0
_chemical_formula_structural       Cu2PdCl6
_chemical_formula_sum              "Cu2 Pd1 Cl6"
_cell_length_a       6.606086189102049
_cell_length_b       6.606086151916134
_cell_length_c       6.606086296573133
_cell_angle_alpha    59.99999918451102
_cell_angle_beta     59.99999901607913
_cell_angle_gamma    60.00000055328626

_space_group_name_H-M_alt    "P 1"
_space_group_IT_number       1

loop_
  _space_group_symop_operation_xyz
  'x, y, z'

loop_
  _atom_site_type_symbol
  _atom_site_label
  _atom_site_symmetry_multiplicity
  _atom_site_fract_x
  _atom_site_fract_y
  _atom_site_fract_z
  _atom_site_occupancy
  Cu  Cu1       1.0  0.2500000500926614  0.24999986221816736  0.250000090015999  1.0000
  Cu  Cu2       1.0  0.7499999560358475  0.7500001484057225  0.7499999470279421  1.0000
  Pd  Pd1       1.0  0.9999999959739814  2.780946644886205e-08  1.2328365379318048e-08  1.0000
  Cl  Cl1       1.0  0.25010974773686645  0.25010969510630593  0.7498902447797081  1.0000
  Cl  Cl2       1.0  0.7498902888487371  0.7498902765843314  0.2501097344383328  1.0000
  Cl  Cl3       1.0  0.7498902695563402  0.25010972038459733  0.2501097689216413  1.0000
  Cl  Cl4       1.0  0.25010973657216856  0.7498902902392928  0.7498902136270983  1.0000
  Cl  Cl5       1.0  0.2501097115948374  0.7498902565423663  0.25010975542916725  1.0000
  Cl  Cl6       1.0  0.7498902624710555  0.250109724418092  0.7498902322487515  1.0000
