data_image0
_chemical_formula_structural       Cu2PdI6
_chemical_formula_sum              "Cu2 Pd1 I6"
_cell_length_a       7.471714464105999
_cell_length_b       7.4717144405494365
_cell_length_c       7.471714428074435
_cell_angle_alpha    59.9999996051142
_cell_angle_beta     59.99999980872056
_cell_angle_gamma    59.99999951791157

_space_group_name_H-M_alt    "P 1"
_space_group_IT_number       1

loop_
  _space_group_symop_operation_xyz
  'x, y, z'

loop_
  _atom_site_type_symbol
  _atom_site_label
  _atom_site_symmetry_multiplicity
  _atom_site_fract_x
  _atom_site_fract_y
  _atom_site_fract_z
  _atom_site_occupancy
  Cu  Cu1       1.0  0.25000000746125156  0.24999994092956931  0.25000000099854325  1.0000
  Cu  Cu2       1.0  0.7500000663092327  0.7499999506443707  0.7499999759938191  1.0000
  Pd  Pd1       1.0  0.9999999851403533  0.9999999147628913  4.6033235302115005e-08  1.0000
  I   I1        1.0  0.2558759931063268  0.2558760738431861  0.7441239652341527  1.0000
  I   I2        1.0  0.7441239962707621  0.7441240291843508  0.2558759763341074  1.0000
  I   I3        1.0  0.7441240200400242  0.25587600972701185  0.25587601773562163  1.0000
  I   I4        1.0  0.2558759841994716  0.7441240162592919  0.7441239977502413  1.0000
  I   I5        1.0  0.2558759532932294  0.744124049247751  0.25587600822971307  1.0000
  I   I6        1.0  0.7441240001961735  0.25587601771793217  0.7441240081263637  1.0000
