data_image0
_chemical_formula_structural       Cu2PdBr6
_chemical_formula_sum              "Cu2 Pd1 Br6"
_cell_length_a       7.006416523413598
_cell_length_b       7.006416460870685
_cell_length_c       7.006416391025444
_cell_angle_alpha    60.000001269800464
_cell_angle_beta     60.00000101726667
_cell_angle_gamma    60.00000049066447

_space_group_name_H-M_alt    "P 1"
_space_group_IT_number       1

loop_
  _space_group_symop_operation_xyz
  'x, y, z'

loop_
  _atom_site_type_symbol
  _atom_site_label
  _atom_site_symmetry_multiplicity
  _atom_site_fract_x
  _atom_site_fract_y
  _atom_site_fract_z
  _atom_site_occupancy
  Cu  Cu1       1.0  0.24999987331761925  0.24999999232149578  0.2500000846106507  1.0000
  Cu  Cu2       1.0  0.7499999993412214  0.7499999017990582  0.7499999918212225  1.0000
  Pd  Pd1       1.0  3.239570464515011e-08  0.9999999720314685  0.999999967813887  1.0000
  Br  Br1       1.0  0.25136122626192475  0.2513612812553696  0.7486387600439306  1.0000
  Br  Br2       1.0  0.7486388021115261  0.7486387439676747  0.2513612529061305  1.0000
  Br  Br3       1.0  0.7486387669252317  0.251361288525901  0.2513612080700621  1.0000
  Br  Br4       1.0  0.2513612544389339  0.7486387873901058  0.748638758774687  1.0000
  Br  Br5       1.0  0.25136125662494724  0.7486387601034502  0.25136124090833944  1.0000
  Br  Br6       1.0  0.7486387942386868  0.2513612668676271  0.7486387370864032  1.0000
