data_image0
_chemical_formula_structural       Cu2PdCl6
_chemical_formula_sum              "Cu2 Pd1 Cl6"
_cell_length_a       6.60544904506198
_cell_length_b       6.60544909384986
_cell_length_c       6.605449161479353
_cell_angle_alpha    60.00000029097813
_cell_angle_beta     60.00000024182338
_cell_angle_gamma    59.999999549399234

_space_group_name_H-M_alt    "P 1"
_space_group_IT_number       1

loop_
  _space_group_symop_operation_xyz
  'x, y, z'

loop_
  _atom_site_type_symbol
  _atom_site_label
  _atom_site_symmetry_multiplicity
  _atom_site_fract_x
  _atom_site_fract_y
  _atom_site_fract_z
  _atom_site_occupancy
  Cu  Cu1       1.0  0.2500000901610124  0.2499999791737323  0.24999995434362637  1.0000
  Cu  Cu2       1.0  0.7500000521276604  0.7500000209576445  0.7500000561441749  1.0000
  Pd  Pd1       1.0  0.99999994425459  2.039557589511915e-08  0.9999999964802945  1.0000
  Cl  Cl1       1.0  0.2501191399226227  0.2501192563629661  0.7498807756185184  1.0000
  Cl  Cl2       1.0  0.7498807492970792  0.7498807530391284  0.25011920991995346  1.0000
  Cl  Cl3       1.0  0.7498807815775635  0.2501192399357493  0.2501191950097687  1.0000
  Cl  Cl4       1.0  0.2501192593393273  0.7498807286751931  0.74988077746493  1.0000
  Cl  Cl5       1.0  0.25011923413587356  0.7498807656025753  0.25011922938247005  1.0000
  Cl  Cl6       1.0  0.749880745579218  0.2501192345288026  0.7498807851831389  1.0000
