data_image0
_chemical_formula_structural       Cu2PdBr6
_chemical_formula_sum              "Cu2 Pd1 Br6"
_cell_length_a       7.0049704502902985
_cell_length_b       7.004970486657904
_cell_length_c       7.004970453728271
_cell_angle_alpha    60.000000081083925
_cell_angle_beta     59.999999971922364
_cell_angle_gamma    60.00000037845812

_space_group_name_H-M_alt    "P 1"
_space_group_IT_number       1

loop_
  _space_group_symop_operation_xyz
  'x, y, z'

loop_
  _atom_site_type_symbol
  _atom_site_label
  _atom_site_symmetry_multiplicity
  _atom_site_fract_x
  _atom_site_fract_y
  _atom_site_fract_z
  _atom_site_occupancy
  Cu  Cu1       1.0  0.25000002789983256  0.250000048121541  0.24999994514329987  1.0000
  Cu  Cu2       1.0  0.749999967831514  0.7499999677768241  0.750000031622313  1.0000
  Pd  Pd1       1.0  2.4843173990785802e-08  0.9999999650321192  0.9999999508151581  1.0000
  Br  Br1       1.0  0.25140474312175193  0.2514047284824459  0.7485952749222324  1.0000
  Br  Br2       1.0  0.7485952316803338  0.7485952611900084  0.2514047539721217  1.0000
  Br  Br3       1.0  0.7485952331577299  0.25140477908305897  0.2514047804249573  1.0000
  Br  Br4       1.0  0.25140475413162344  0.7485952473056704  0.7485952438534342  1.0000
  Br  Br5       1.0  0.25140478129859933  0.7485952599416336  0.251404755697193  1.0000
  Br  Br6       1.0  0.7485952327651508  0.2514047454663672  0.7485952599741335  1.0000
