data_image0
_chemical_formula_structural       Cu2PtBr6
_chemical_formula_sum              "Cu2 Pt1 Br6"
_cell_length_a       7.012795371705749
_cell_length_b       7.012795430582635
_cell_length_c       7.012795296754378
_cell_angle_alpha    60.00000016285743
_cell_angle_beta     60.000000143028764
_cell_angle_gamma    60.00000021321894

_space_group_name_H-M_alt    "P 1"
_space_group_IT_number       1

loop_
  _space_group_symop_operation_xyz
  'x, y, z'

loop_
  _atom_site_type_symbol
  _atom_site_label
  _atom_site_symmetry_multiplicity
  _atom_site_fract_x
  _atom_site_fract_y
  _atom_site_fract_z
  _atom_site_occupancy
  Cu  Cu1       1.0  0.24999998289779934  0.24999993885689362  0.2500000708684839  1.0000
  Cu  Cu2       1.0  0.7499999580532923  0.7500000453547374  0.7499998539713709  1.0000
  Pt  Pt1       1.0  0.999999988474063  1.4566703956512635e-16  0.9999999743917405  1.0000
  Br  Br1       1.0  0.24868528505158685  0.24868528753232438  0.751314724302554  1.0000
  Br  Br2       1.0  0.7513147526300281  0.7513147473261578  0.24868530509422662  1.0000
  Br  Br3       1.0  0.7513147325253804  0.24868522911171345  0.24868525855716883  1.0000
  Br  Br4       1.0  0.24868531633405902  0.7513147376354851  0.7513147465456399  1.0000
  Br  Br5       1.0  0.24868522433654464  0.751314745143981  0.24868528787895838  1.0000
  Br  Br6       1.0  0.7513147566970562  0.24868526701073992  0.7513147826196751  1.0000
