data_image0
_chemical_formula_structural       Cu2PdF6
_chemical_formula_sum              "Cu2 Pd1 F6"
_cell_length_a       5.464881598927418
_cell_length_b       5.464881817930574
_cell_length_c       5.464881587497056
_cell_angle_alpha    60.00000018702961
_cell_angle_beta     59.99999937230448
_cell_angle_gamma    60.00000054074285

_space_group_name_H-M_alt    "P 1"
_space_group_IT_number       1

loop_
  _space_group_symop_operation_xyz
  'x, y, z'

loop_
  _atom_site_type_symbol
  _atom_site_label
  _atom_site_symmetry_multiplicity
  _atom_site_fract_x
  _atom_site_fract_y
  _atom_site_fract_z
  _atom_site_occupancy
  Cu  Cu1       1.0  0.24999985884041503  0.25000018952652303  0.25000000629935326  1.0000
  Cu  Cu2       1.0  0.7500001890748356  0.7499998402160047  0.7499999413929799  1.0000
  Pd  Pd1       1.0  1.694755646948125e-08  0.9999999238019647  1.028198726231941e-07  1.0000
  F   F1        1.0  0.25224221879886627  0.25224243890242687  0.747757620399872  1.0000
  F   F2        1.0  0.7477576658225839  0.7477575482588472  0.2522423680145514  1.0000
  F   F3        1.0  0.7477577782786609  0.2522423222395955  0.2522422188689916  1.0000
  F   F4        1.0  0.2522422775976818  0.7477576962973398  0.7477576627405566  1.0000
  F   F5        1.0  0.25224230452190566  0.7477576323024526  0.2522423939555925  1.0000
  F   F6        1.0  0.7477577025223012  0.2522423615821757  0.7477576781049059  1.0000
