data_image0
_chemical_formula_structural       Cu2PtBr6
_chemical_formula_sum              "Cu2 Pt1 Br6"
_cell_length_a       7.008190318368277
_cell_length_b       7.008190306168155
_cell_length_c       7.008190318765173
_cell_angle_alpha    59.99999997681152
_cell_angle_beta     59.99999995061347
_cell_angle_gamma    60.000000006741296

_space_group_name_H-M_alt    "P 1"
_space_group_IT_number       1

loop_
  _space_group_symop_operation_xyz
  'x, y, z'

loop_
  _atom_site_type_symbol
  _atom_site_label
  _atom_site_symmetry_multiplicity
  _atom_site_fract_x
  _atom_site_fract_y
  _atom_site_fract_z
  _atom_site_occupancy
  Cu  Cu1       1.0  0.24999999686331792  0.25000000297399466  0.25000000014820256  1.0000
  Cu  Cu2       1.0  0.7499999984455382  0.7500000001840301  0.7500000008857924  1.0000
  Pt  Pt1       1.0  1.695902764354359e-08  3.495181570697097e-09  1.260332560189098e-08  1.0000
  Br  Br1       1.0  0.24877982540458657  0.24877982490513825  0.7512201750001989  1.0000
  Br  Br2       1.0  0.7512201669088202  0.7512201625245696  0.24877983396877737  1.0000
  Br  Br3       1.0  0.7512201740302682  0.24877982507205534  0.24877982660973696  1.0000
  Br  Br4       1.0  0.24877983359452172  0.751220165852834  0.7512201629676439  1.0000
  Br  Br5       1.0  0.24877982443078225  0.7512201742939855  0.24877982854356256  1.0000
  Br  Br6       1.0  0.7512201646701341  0.24877983760199307  0.7512201583833087  1.0000
