data_image0
_chemical_formula_structural       Cu2PtI6
_chemical_formula_sum              "Cu2 Pt1 I6"
_cell_length_a       7.500865277380185
_cell_length_b       7.500865214713996
_cell_length_c       7.50086524496851
_cell_angle_alpha    60.000000591720784
_cell_angle_beta     60.00000036056538
_cell_angle_gamma    59.9999999404759

_space_group_name_H-M_alt    "P 1"
_space_group_IT_number       1

loop_
  _space_group_symop_operation_xyz
  'x, y, z'

loop_
  _atom_site_type_symbol
  _atom_site_label
  _atom_site_symmetry_multiplicity
  _atom_site_fract_x
  _atom_site_fract_y
  _atom_site_fract_z
  _atom_site_occupancy
  Cu  Cu1       1.0  0.24999996923037376  0.2500000328220305  0.24999997509344238  1.0000
  Cu  Cu2       1.0  0.7499999909453947  0.7500000380523141  0.7499999271918742  1.0000
  Pt  Pt1       1.0  4.6772277549498763e-08  7.674182464887909e-08  0.9999998835825887  1.0000
  I   I1        1.0  0.25328891528454406  0.2532888645778621  0.746711119210167  1.0000
  I   I2        1.0  0.7467110481595837  0.7467110348519803  0.25328898714937775  1.0000
  I   I3        1.0  0.7467110923414334  0.25328889549050243  0.2532889527710931  1.0000
  I   I4        1.0  0.2532888912378706  0.7467111051732368  0.7467110915707361  1.0000
  I   I5        1.0  0.25328894166135574  0.7467110476402983  0.2532889752596713  1.0000
  I   I6        1.0  0.746711100805575  0.2532889056721021  0.7467110859780661  1.0000
