data_image0
_chemical_formula_structural       Cu2PtCl6
_chemical_formula_sum              "Cu2 Pt1 Cl6"
_cell_length_a       6.667813614725329
_cell_length_b       6.667813412305676
_cell_length_c       6.667813307423327
_cell_angle_alpha    60.00000006097087
_cell_angle_beta     59.99999978893105
_cell_angle_gamma    60.00000017643897

_space_group_name_H-M_alt    "P 1"
_space_group_IT_number       1

loop_
  _space_group_symop_operation_xyz
  'x, y, z'

loop_
  _atom_site_type_symbol
  _atom_site_label
  _atom_site_symmetry_multiplicity
  _atom_site_fract_x
  _atom_site_fract_y
  _atom_site_fract_z
  _atom_site_occupancy
  Cu  Cu1       1.0  0.24999992880728125  0.25000010492086844  0.2500000759153497  1.0000
  Cu  Cu2       1.0  0.7500000113458105  0.7499999620967465  0.7500000201636821  1.0000
  Pt  Pt1       1.0  0.999999991743406  9.18400669966789e-09  0.9999999875383573  1.0000
  Cl  Cl1       1.0  0.24592108129648765  0.24592109324159325  0.7540788310513156  1.0000
  Cl  Cl2       1.0  0.7540788626713065  0.754078894793563  0.245921073151061  1.0000
  Cl  Cl3       1.0  0.7540789577459033  0.2459211078550257  0.24592103442814953  1.0000
  Cl  Cl4       1.0  0.24592112292531654  0.7540788856905358  0.7540789456420306  1.0000
  Cl  Cl5       1.0  0.24592109812376448  0.7540788776567777  0.2459210797404888  1.0000
  Cl  Cl6       1.0  0.7540789448871095  0.24592106262154442  0.7540789487929688  1.0000
