data_image0
_chemical_formula_structural       Cu2PbI6
_chemical_formula_sum              "Cu2 Pb1 I6"
_cell_length_a       8.0617964041754
_cell_length_b       8.061796618761765
_cell_length_c       8.06179653805837
_cell_angle_alpha    59.99999842379578
_cell_angle_beta     59.99999970668414
_cell_angle_gamma    60.000000479620844

_space_group_name_H-M_alt    "P 1"
_space_group_IT_number       1

loop_
  _space_group_symop_operation_xyz
  'x, y, z'

loop_
  _atom_site_type_symbol
  _atom_site_label
  _atom_site_symmetry_multiplicity
  _atom_site_fract_x
  _atom_site_fract_y
  _atom_site_fract_z
  _atom_site_occupancy
  Cu  Cu1       1.0  0.2500000330212949  0.2500000252237765  0.2499998996549363  1.0000
  Cu  Cu2       1.0  0.750000081603143  0.7499999647700185  0.7500000236336809  1.0000
  Pb  Pb1       1.0  0.9999999855601861  5.621024900107362e-08  3.8654860258104445e-08  1.0000
  I   I1        1.0  0.27347242299306435  0.273472465269046  0.7265275799861175  1.0000
  I   I2        1.0  0.7265275366239857  0.7265274913024358  0.2734724610852983  1.0000
  I   I3        1.0  0.7265275296279357  0.2734724764063535  0.27347247549513354  1.0000
  I   I4        1.0  0.2734724724520665  0.726527481684326  0.7265274803238738  1.0000
  I   I5        1.0  0.2734724730647324  0.7265275450905752  0.27347249179728333  1.0000
  I   I6        1.0  0.7265274653555528  0.27347249655587946  0.7265275458646482  1.0000
