data_image0
_chemical_formula_structural       Cu2PBr6
_chemical_formula_sum              "Cu2 P1 Br6"
_cell_length_a       7.016318807457992
_cell_length_b       7.016318591206452
_cell_length_c       7.016318393878572
_cell_angle_alpha    60.00000008789688
_cell_angle_beta     59.99999577418446
_cell_angle_gamma    59.99999783129857

_space_group_name_H-M_alt    "P 1"
_space_group_IT_number       1

loop_
  _space_group_symop_operation_xyz
  'x, y, z'

loop_
  _atom_site_type_symbol
  _atom_site_label
  _atom_site_symmetry_multiplicity
  _atom_site_fract_x
  _atom_site_fract_y
  _atom_site_fract_z
  _atom_site_occupancy
  Cu  Cu1       1.0  0.2500003361161654  0.24999997207857308  0.24999968770353392  1.0000
  Cu  Cu2       1.0  0.7499998555662015  0.75000007159113  0.7499998454486255  1.0000
  P   P1        1.0  3.889867035725227e-08  3.142019177688315e-08  0.9999999819435536  1.0000
  Br  Br1       1.0  0.24467463323260602  0.24467462829678877  0.7553254568977149  1.0000
  Br  Br2       1.0  0.7553251544316653  0.7553253141300844  0.2446747835393227  1.0000
  Br  Br3       1.0  0.7553253645506991  0.24467460154054643  0.24467460530836904  1.0000
  Br  Br4       1.0  0.24467464691649396  0.7553253705609492  0.7553254570809258  1.0000
  Br  Br5       1.0  0.24467473287482824  0.755325291952726  0.24467471339299646  1.0000
  Br  Br6       1.0  0.7553252421693837  0.24467472029679463  0.7553254597284402  1.0000
