data_image0
_chemical_formula_structural       Cu2PI6
_chemical_formula_sum              "Cu2 P1 I6"
_cell_length_a       7.5738580085906175
_cell_length_b       7.573858081817515
_cell_length_c       7.573857989489246
_cell_angle_alpha    59.99999970538914
_cell_angle_beta     60.00000026185848
_cell_angle_gamma    59.999999918424024

_space_group_name_H-M_alt    "P 1"
_space_group_IT_number       1

loop_
  _space_group_symop_operation_xyz
  'x, y, z'

loop_
  _atom_site_type_symbol
  _atom_site_label
  _atom_site_symmetry_multiplicity
  _atom_site_fract_x
  _atom_site_fract_y
  _atom_site_fract_z
  _atom_site_occupancy
  Cu  Cu1       1.0  0.2500000632687781  0.24999994640860737  0.25000005164801864  1.0000
  Cu  Cu2       1.0  0.7499999652717952  0.7500001011909511  0.7499999936330041  1.0000
  P   P1        1.0  3.680678543753896e-09  0.9999999935317253  0.9999999934718117  1.0000
  I   I1        1.0  0.25667818389358116  0.25667810752140097  0.7433218520319901  1.0000
  I   I2        1.0  0.7433218126623998  0.7433218850978227  0.2566781588319637  1.0000
  I   I3        1.0  0.7433218081532307  0.2566781379573045  0.2566781565441871  1.0000
  I   I4        1.0  0.25667812381520644  0.743321883769156  0.7433218416923053  1.0000
  I   I5        1.0  0.25667815960147145  0.7433218378180666  0.2566781250261726  1.0000
  I   I6        1.0  0.7433218801212208  0.2566781030549596  0.7433218280719642  1.0000
