data_image0
_chemical_formula_structural       Cu2PF6
_chemical_formula_sum              "Cu2 P1 F6"
_cell_length_a       5.245840186286127
_cell_length_b       5.245840512527961
_cell_length_c       5.245840160507131
_cell_angle_alpha    60.00000157430224
_cell_angle_beta     60.00000155744875
_cell_angle_gamma    59.999999878224315

_space_group_name_H-M_alt    "P 1"
_space_group_IT_number       1

loop_
  _space_group_symop_operation_xyz
  'x, y, z'

loop_
  _atom_site_type_symbol
  _atom_site_label
  _atom_site_symmetry_multiplicity
  _atom_site_fract_x
  _atom_site_fract_y
  _atom_site_fract_z
  _atom_site_occupancy
  Cu  Cu1       1.0  0.24999997656748008  0.2500000908858384  0.24999998098477666  1.0000
  Cu  Cu2       1.0  0.7500000424126175  0.7499999411305269  0.7500000657066447  1.0000
  P   P1        1.0  0.9999999959982223  0.9999999789877271  0.9999999534125827  1.0000
  F   F1        1.0  0.22037380462383646  0.2203737973143895  0.7796261982760214  1.0000
  F   F2        1.0  0.7796261431633781  0.7796261973468259  0.22037378068798583  1.0000
  F   F3        1.0  0.7796262609188378  0.2203737191988756  0.2203736968719905  1.0000
  F   F4        1.0  0.2203738280334492  0.7796262217643025  0.779626305078033  1.0000
  F   F5        1.0  0.22037378129486063  0.7796262591555393  0.22037367142572728  1.0000
  F   F6        1.0  0.7796261831670799  0.22037378453431314  0.7796263642813985  1.0000
