data_image0
_chemical_formula_structural       Cu2RuI6
_chemical_formula_sum              "Cu2 Ru1 I6"
_cell_length_a       7.504688052088259
_cell_length_b       7.504687858665319
_cell_length_c       7.5046880982392326
_cell_angle_alpha    59.999999368958136
_cell_angle_beta     59.999999526922906
_cell_angle_gamma    59.99999939125652

_space_group_name_H-M_alt    "P 1"
_space_group_IT_number       1

loop_
  _space_group_symop_operation_xyz
  'x, y, z'

loop_
  _atom_site_type_symbol
  _atom_site_label
  _atom_site_symmetry_multiplicity
  _atom_site_fract_x
  _atom_site_fract_y
  _atom_site_fract_z
  _atom_site_occupancy
  Cu  Cu1       1.0  0.24999998009092805  0.24999997730475101  0.2500000270429329  1.0000
  Cu  Cu2       1.0  0.7500000208552801  0.7500000363605327  0.7500000019394152  1.0000
  Ru  Ru1       1.0  0.9999999597153846  1.468775789404652e-08  4.803426388480204e-09  1.0000
  I   I1        1.0  0.2526902640799658  0.25269026832632246  0.7473097329955953  1.0000
  I   I2        1.0  0.7473097826680885  0.7473097371790954  0.2526902212007451  1.0000
  I   I3        1.0  0.747309779342326  0.2526902256398355  0.2526901987161916  1.0000
  I   I4        1.0  0.25269019790298625  0.7473097668097978  0.7473098234094206  1.0000
  I   I5        1.0  0.2526902413951632  0.7473097557630818  0.2526902078896972  1.0000
  I   I6        1.0  0.7473097787613856  0.252690218734847  0.7473097831011432  1.0000
