data_image0
_chemical_formula_structural       Cu2RhBr6
_chemical_formula_sum              "Cu2 Rh1 Br6"
_cell_length_a       6.9799728670085175
_cell_length_b       6.979972875159888
_cell_length_c       6.97997296127727
_cell_angle_alpha    59.99999912356636
_cell_angle_beta     59.99999955599349
_cell_angle_gamma    60.00000017703991

_space_group_name_H-M_alt    "P 1"
_space_group_IT_number       1

loop_
  _space_group_symop_operation_xyz
  'x, y, z'

loop_
  _atom_site_type_symbol
  _atom_site_label
  _atom_site_symmetry_multiplicity
  _atom_site_fract_x
  _atom_site_fract_y
  _atom_site_fract_z
  _atom_site_occupancy
  Cu  Cu1       1.0  0.25000000427913205  0.25000003304426166  0.2500000090206197  1.0000
  Cu  Cu2       1.0  0.7500000807499954  0.7499999499870563  0.7499999788528655  1.0000
  Rh  Rh1       1.0  0.9999999660279596  1.7546556328092457e-08  0.9999999795593358  1.0000
  Br  Br1       1.0  0.24879195766180262  0.24879204998039556  0.7512079822265335  1.0000
  Br  Br2       1.0  0.7512079911953291  0.7512079891999021  0.24879200840903165  1.0000
  Br  Br3       1.0  0.7512079397039697  0.2487920516229742  0.24879200152024492  1.0000
  Br  Br4       1.0  0.24879200547758437  0.7512079489548993  0.7512080188503428  1.0000
  Br  Br5       1.0  0.2487920380603232  0.7512079305714869  0.24879202540590187  1.0000
  Br  Br6       1.0  0.751208015938407  0.24879203140396283  0.7512079956740676  1.0000
