data_image0
_chemical_formula_structural       Cu2RuCl6
_chemical_formula_sum              "Cu2 Ru1 Cl6"
_cell_length_a       6.628684040997103
_cell_length_b       6.628684029946077
_cell_length_c       6.628683907716902
_cell_angle_alpha    60.00000271042417
_cell_angle_beta     60.000002195088996
_cell_angle_gamma    60.00000322678463

_space_group_name_H-M_alt    "P 1"
_space_group_IT_number       1

loop_
  _space_group_symop_operation_xyz
  'x, y, z'

loop_
  _atom_site_type_symbol
  _atom_site_label
  _atom_site_symmetry_multiplicity
  _atom_site_fract_x
  _atom_site_fract_y
  _atom_site_fract_z
  _atom_site_occupancy
  Cu  Cu1       1.0  0.24999996800447488  0.24999998434934717  0.24999992298997764  1.0000
  Cu  Cu2       1.0  0.75000005308364  0.7499999918485744  0.7500000159770515  1.0000
  Ru  Ru1       1.0  1.2317628180448604e-09  0.9999999963047124  2.386068869423838e-08  1.0000
  Cl  Cl1       1.0  0.2475017119887231  0.2475017901676247  0.752498307349167  1.0000
  Cl  Cl2       1.0  0.7524982935091526  0.7524982118973144  0.24750172604674922  1.0000
  Cl  Cl3       1.0  0.7524982919362518  0.2475017777640906  0.24750173815648813  1.0000
  Cl  Cl4       1.0  0.2475017829598954  0.7524981781097483  0.7524982036803026  1.0000
  Cl  Cl5       1.0  0.24750168428152985  0.7524982835586482  0.24750175053175913  1.0000
  Cl  Cl6       1.0  0.7524982311257045  0.24750175361152502  0.7524982937623141  1.0000
