data_image0
_chemical_formula_structural       Cu2ReBr6
_chemical_formula_sum              "Cu2 Re1 Br6"
_cell_length_a       7.143673584493604
_cell_length_b       7.143673541078637
_cell_length_c       7.143673644469027
_cell_angle_alpha    60.0000000512267
_cell_angle_beta     59.999999087536416
_cell_angle_gamma    59.99999993822524

_space_group_name_H-M_alt    "P 1"
_space_group_IT_number       1

loop_
  _space_group_symop_operation_xyz
  'x, y, z'

loop_
  _atom_site_type_symbol
  _atom_site_label
  _atom_site_symmetry_multiplicity
  _atom_site_fract_x
  _atom_site_fract_y
  _atom_site_fract_z
  _atom_site_occupancy
  Cu  Cu1       1.0  0.25000000250245225  0.24999999649121468  0.24999999159341854  1.0000
  Cu  Cu2       1.0  0.7500000153764121  0.7500000289059222  0.7499999833259084  1.0000
  Re  Re1       1.0  5.5579415247864704e-08  0.9999999108487629  0.9999999859894306  1.0000
  Br  Br1       1.0  0.24576097332853494  0.24576096223939284  0.7542390313958878  1.0000
  Br  Br2       1.0  0.7542390705275391  0.7542390288688069  0.24576096727706262  1.0000
  Br  Br3       1.0  0.7542390521078127  0.24576094905327336  0.2457610008770413  1.0000
  Br  Br4       1.0  0.24576090310698728  0.754239084916098  0.7542390626811603  1.0000
  Br  Br5       1.0  0.24576093309177777  0.7542390532103678  0.2457609707871577  1.0000
  Br  Br6       1.0  0.7542389934032755  0.24576098933123708  0.7542389992566421  1.0000
