data_image0
_chemical_formula_structural       Cu2RhI6
_chemical_formula_sum              "Cu2 Rh1 I6"
_cell_length_a       7.466832433609833
_cell_length_b       7.466832488192355
_cell_length_c       7.466832281981725
_cell_angle_alpha    60.00000109797396
_cell_angle_beta     60.00000048612967
_cell_angle_gamma    59.99999945024631

_space_group_name_H-M_alt    "P 1"
_space_group_IT_number       1

loop_
  _space_group_symop_operation_xyz
  'x, y, z'

loop_
  _atom_site_type_symbol
  _atom_site_label
  _atom_site_symmetry_multiplicity
  _atom_site_fract_x
  _atom_site_fract_y
  _atom_site_fract_z
  _atom_site_occupancy
  Cu  Cu1       1.0  0.2499999434354588  0.2500000696868453  0.2500000120534608  1.0000
  Cu  Cu2       1.0  0.7499999758942674  0.7499999810662183  0.7499999514735304  1.0000
  Rh  Rh1       1.0  4.3112694271028294e-08  9.841480517336491e-09  0.9999999494163044  1.0000
  I   I1        1.0  0.2518052172272121  0.2518052152246048  0.7481947955597059  1.0000
  I   I2        1.0  0.7481947917665837  0.7481947289124113  0.25180526751268234  1.0000
  I   I3        1.0  0.7481947578095041  0.25180523181624176  0.2518052048739819  1.0000
  I   I4        1.0  0.25180524996479625  0.7481947762904021  0.7481948147700365  1.0000
  I   I5        1.0  0.25180523709421426  0.7481947388190682  0.25180521579688625  1.0000
  I   I6        1.0  0.7481947860667697  0.25180524632411955  0.7481947875466779  1.0000
