data_image0
_chemical_formula_structural       Cu2ReI6
_chemical_formula_sum              "Cu2 Re1 I6"
_cell_length_a       7.647989813490682
_cell_length_b       7.647989830203229
_cell_length_c       7.647989634920616
_cell_angle_alpha    59.99999981002796
_cell_angle_beta     60.000000772581714
_cell_angle_gamma    59.99999909428629

_space_group_name_H-M_alt    "P 1"
_space_group_IT_number       1

loop_
  _space_group_symop_operation_xyz
  'x, y, z'

loop_
  _atom_site_type_symbol
  _atom_site_label
  _atom_site_symmetry_multiplicity
  _atom_site_fract_x
  _atom_site_fract_y
  _atom_site_fract_z
  _atom_site_occupancy
  Cu  Cu1       1.0  0.2500000427553407  0.2500000111278007  0.24999999104911308  1.0000
  Cu  Cu2       1.0  0.7499999977970477  0.7500000397889823  0.7499999750325113  1.0000
  Re  Re1       1.0  3.0989023483921455e-08  1.1209763222369218e-08  0.9999997984610315  1.0000
  I   I1        1.0  0.24962073980520652  0.2496207021704644  0.7503792947228204  1.0000
  I   I2        1.0  0.750379225746077  0.750379270277989  0.24962076116885304  1.0000
  I   I3        1.0  0.7503792233796202  0.24962074120515756  0.24962074011347907  1.0000
  I   I4        1.0  0.24962068049710076  0.7503792985018647  0.7503793613649176  1.0000
  I   I5        1.0  0.24962073007051608  0.7503792675434781  0.24962070268460618  1.0000
  I   I6        1.0  0.7503793274273856  0.24962066006592804  0.7503793714943433  1.0000
