data_image0
_chemical_formula_structural       Cu2ReF6
_chemical_formula_sum              "Cu2 Re1 F6"
_cell_length_a       5.471752237380369
_cell_length_b       5.471752421670767
_cell_length_c       5.471752241483958
_cell_angle_alpha    59.99999824113269
_cell_angle_beta     59.999998189861266
_cell_angle_gamma    59.9999997651275

_space_group_name_H-M_alt    "P 1"
_space_group_IT_number       1

loop_
  _space_group_symop_operation_xyz
  'x, y, z'

loop_
  _atom_site_type_symbol
  _atom_site_label
  _atom_site_symmetry_multiplicity
  _atom_site_fract_x
  _atom_site_fract_y
  _atom_site_fract_z
  _atom_site_occupancy
  Cu  Cu1       1.0  0.24999995304447006  0.25000008847046407  0.2500000196968061  1.0000
  Cu  Cu2       1.0  0.7499999856707265  0.7499999744317916  0.7500000316574772  1.0000
  Re  Re1       1.0  0.9999999998939523  0.9999999686637362  0.9999999700319533  1.0000
  F   F1        1.0  0.25085777050213265  0.2508577761369331  0.74914223041774  1.0000
  F   F2        1.0  0.7491422239767819  0.7491422397609276  0.25085772517847565  1.0000
  F   F3        1.0  0.749142267908852  0.2508576974048917  0.2508577981463834  1.0000
  F   F4        1.0  0.25085783562513253  0.749142206577735  0.7491422466031851  1.0000
  F   F5        1.0  0.25085776721088915  0.7491422551175582  0.2508577912224684  1.0000
  F   F6        1.0  0.7491421906249639  0.25085780106978467  0.7491422155500121  1.0000
