data_image0
_chemical_formula_structural       Cu2ReCl6
_chemical_formula_sum              "Cu2 Re1 Cl6"
_cell_length_a       6.72127506791487
_cell_length_b       6.721275012020966
_cell_length_c       6.721275128804245
_cell_angle_alpha    59.99999986707009
_cell_angle_beta     59.99999897334773
_cell_angle_gamma    59.999998439371176

_space_group_name_H-M_alt    "P 1"
_space_group_IT_number       1

loop_
  _space_group_symop_operation_xyz
  'x, y, z'

loop_
  _atom_site_type_symbol
  _atom_site_label
  _atom_site_symmetry_multiplicity
  _atom_site_fract_x
  _atom_site_fract_y
  _atom_site_fract_z
  _atom_site_occupancy
  Cu  Cu1       1.0  0.25000004927246233  0.24999983491153233  0.2500000552264982  1.0000
  Cu  Cu2       1.0  0.7499999957744918  0.7500001206352545  0.7499998578721572  1.0000
  Re  Re1       1.0  1.867145566911029e-08  4.1910399902113535e-08  3.2197215044786754e-08  1.0000
  Cl  Cl1       1.0  0.24577751680544188  0.24577748087765258  0.7542225171726629  1.0000
  Cl  Cl2       1.0  0.7542224761989739  0.7542224710247533  0.24577756808730594  1.0000
  Cl  Cl3       1.0  0.7542225457604542  0.24577743562900897  0.24577750414147742  1.0000
  Cl  Cl4       1.0  0.2457775109133768  0.7542225108068219  0.7542224880411155  1.0000
  Cl  Cl5       1.0  0.24577741597919056  0.7542225542403864  0.24577749041265978  1.0000
  Cl  Cl6       1.0  0.7542224575973694  0.24577753432636756  0.7542225282043603  1.0000
