data_image0
_chemical_formula_structural       Cu2RuBr6
_chemical_formula_sum              "Cu2 Ru1 Br6"
_cell_length_a       7.052051146286343
_cell_length_b       7.052051260887812
_cell_length_c       7.052051107818365
_cell_angle_alpha    60.00000029300683
_cell_angle_beta     59.9999995776245
_cell_angle_gamma    59.99999958006354

_space_group_name_H-M_alt    "P 1"
_space_group_IT_number       1

loop_
  _space_group_symop_operation_xyz
  'x, y, z'

loop_
  _atom_site_type_symbol
  _atom_site_label
  _atom_site_symmetry_multiplicity
  _atom_site_fract_x
  _atom_site_fract_y
  _atom_site_fract_z
  _atom_site_occupancy
  Cu  Cu1       1.0  0.25000003425856265  0.24999998786632713  0.2500000304001048  1.0000
  Cu  Cu2       1.0  0.7500000052924004  0.7499999809661969  0.7500000022178793  1.0000
  Ru  Ru1       1.0  1.8292296671587034e-08  1.3893771331814252e-08  2.0775672013396473e-08  1.0000
  Br  Br1       1.0  0.24860158035147872  0.2486015593945218  0.7513984199971019  1.0000
  Br  Br2       1.0  0.7513983755929265  0.7513984146481674  0.24860161495037283  1.0000
  Br  Br3       1.0  0.751398435567137  0.24860155567370243  0.2486015629212044  1.0000
  Br  Br4       1.0  0.24860157728885482  0.7513984392096438  0.7513984005355236  1.0000
  Br  Br5       1.0  0.2486015540169604  0.7513984248563137  0.2486015825428906  1.0000
  Br  Br6       1.0  0.7513984153727937  0.248601616918512  0.7513983706930537  1.0000
