data_image0
_chemical_formula_structural       Cu2RuF6
_chemical_formula_sum              "Cu2 Ru1 F6"
_cell_length_a       5.543989307038005
_cell_length_b       5.543989443338469
_cell_length_c       5.543989287764798
_cell_angle_alpha    59.99999972106305
_cell_angle_beta     59.99999886460192
_cell_angle_gamma    59.99999851731517

_space_group_name_H-M_alt    "P 1"
_space_group_IT_number       1

loop_
  _space_group_symop_operation_xyz
  'x, y, z'

loop_
  _atom_site_type_symbol
  _atom_site_label
  _atom_site_symmetry_multiplicity
  _atom_site_fract_x
  _atom_site_fract_y
  _atom_site_fract_z
  _atom_site_occupancy
  Cu  Cu1       1.0  0.24999993778320057  0.25000028024235676  0.24999988383983499  1.0000
  Cu  Cu2       1.0  0.7499999910339611  0.7499999327705312  0.7500001320959399  1.0000
  Ru  Ru1       1.0  3.63749409198706e-08  2.209139866607977e-08  3.389826477695607e-08  1.0000
  F   F1        1.0  0.24659554439126058  0.24659547195375944  0.7534044822392935  1.0000
  F   F2        1.0  0.7534045657593249  0.753404515726848  0.24659540237671068  1.0000
  F   F3        1.0  0.7534045282374184  0.24659542107529245  0.2465955909575553  1.0000
  F   F4        1.0  0.2465954186572913  0.7534044627757381  0.7534044632762833  1.0000
  F   F5        1.0  0.24659544103270037  0.7534044960357151  0.2465955341136845  1.0000
  F   F6        1.0  0.7534045080494728  0.24659541874327554  0.7534044656835812  1.0000
