data_image0
_chemical_formula_structural       Cu2RhCl6
_chemical_formula_sum              "Cu2 Rh1 Cl6"
_cell_length_a       6.600956013063628
_cell_length_b       6.600956071217391
_cell_length_c       6.600955870104342
_cell_angle_alpha    59.999999960639
_cell_angle_beta     59.999999704356824
_cell_angle_gamma    59.99999922758814

_space_group_name_H-M_alt    "P 1"
_space_group_IT_number       1

loop_
  _space_group_symop_operation_xyz
  'x, y, z'

loop_
  _atom_site_type_symbol
  _atom_site_label
  _atom_site_symmetry_multiplicity
  _atom_site_fract_x
  _atom_site_fract_y
  _atom_site_fract_z
  _atom_site_occupancy
  Cu  Cu1       1.0  0.24999999708512616  0.2499999503738691  0.24999998677095775  1.0000
  Cu  Cu2       1.0  0.7500000131623673  0.7500000477945655  0.7499999828219914  1.0000
  Rh  Rh1       1.0  0.9999999672757912  3.7108110923451067e-09  0.999999987237921  1.0000
  Cl  Cl1       1.0  0.2470998577411313  0.24709978094076915  0.7529001813424373  1.0000
  Cl  Cl2       1.0  0.7529001846121023  0.7529002153722596  0.2470998216031721  1.0000
  Cl  Cl3       1.0  0.7529002471353753  0.2470997781068335  0.24709971446740703  1.0000
  Cl  Cl4       1.0  0.24709972243572548  0.7529002738683542  0.7529002864336648  1.0000
  Cl  Cl5       1.0  0.2470997702182071  0.7529002037223692  0.24709974149880326  1.0000
  Cl  Cl6       1.0  0.752900237998068  0.24709974806093324  0.7529002992652171  1.0000
