data_image0
_chemical_formula_structural       Cu2ScBr6
_chemical_formula_sum              "Cu2 Sc1 Br6"
_cell_length_a       7.185864471720261
_cell_length_b       7.185864664315945
_cell_length_c       7.185864457969338
_cell_angle_alpha    59.999999587404425
_cell_angle_beta     60.00000110154416
_cell_angle_gamma    60.00000028790541

_space_group_name_H-M_alt    "P 1"
_space_group_IT_number       1

loop_
  _space_group_symop_operation_xyz
  'x, y, z'

loop_
  _atom_site_type_symbol
  _atom_site_label
  _atom_site_symmetry_multiplicity
  _atom_site_fract_x
  _atom_site_fract_y
  _atom_site_fract_z
  _atom_site_occupancy
  Cu  Cu1       1.0  0.2500000481727978  0.24999999715947815  0.24999995877143955  1.0000
  Cu  Cu2       1.0  0.750000031497462  0.7500001039675552  0.7500000227004285  1.0000
  Sc  Sc1       1.0  7.393437864883276e-08  0.9999999710255277  2.901002531443609e-08  1.0000
  Br  Br1       1.0  0.2558265839488444  0.2558266513629413  0.7441733708668058  1.0000
  Br  Br2       1.0  0.7441733520746678  0.7441733986326753  0.2558265660488003  1.0000
  Br  Br3       1.0  0.7441733710218318  0.2558266076350823  0.2558266651816365  1.0000
  Br  Br4       1.0  0.2558265786868989  0.7441733145319838  0.7441733830788567  1.0000
  Br  Br5       1.0  0.25582660413646  0.7441733819396663  0.25582661364626774  1.0000
  Br  Br6       1.0  0.7441733572745365  0.25582657261063263  0.7441733916971605  1.0000
