data_image0
_chemical_formula_structural       Cu2SnF6
_chemical_formula_sum              "Cu2 Sn1 F6"
_cell_length_a       5.589858054106016
_cell_length_b       5.589857932072382
_cell_length_c       5.58985800123307
_cell_angle_alpha    59.99999875125634
_cell_angle_beta     59.9999996566415
_cell_angle_gamma    59.99999984488439

_space_group_name_H-M_alt    "P 1"
_space_group_IT_number       1

loop_
  _space_group_symop_operation_xyz
  'x, y, z'

loop_
  _atom_site_type_symbol
  _atom_site_label
  _atom_site_symmetry_multiplicity
  _atom_site_fract_x
  _atom_site_fract_y
  _atom_site_fract_z
  _atom_site_occupancy
  Cu  Cu1       1.0  0.25000002191227444  0.2500000236665464  0.24999999931968722  1.0000
  Cu  Cu2       1.0  0.7500000513413766  0.7499999592579999  0.7499999447455818  1.0000
  Sn  Sn1       1.0  0.999999990548611  0.9999999539887365  4.474921822533892e-09  1.0000
  F   F1        1.0  0.25095085085768815  0.2509508538735724  0.7490492250800046  1.0000
  F   F2        1.0  0.7490491029394123  0.7490491465790724  0.2509508593972015  1.0000
  F   F3        1.0  0.7490490774089759  0.25095090007596066  0.25095086535939726  1.0000
  F   F4        1.0  0.2509508797892003  0.7490491025676976  0.7490491089845117  1.0000
  F   F5        1.0  0.250950917489967  0.7490491542748702  0.2509508354193057  1.0000
  F   F6        1.0  0.749049093144463  0.25095089876207644  0.7490491782464962  1.0000
