data_image0
_chemical_formula_structural       Cu2SI6
_chemical_formula_sum              "Cu2 S1 I6"
_cell_length_a       7.5453894341651715
_cell_length_b       7.545389488221921
_cell_length_c       7.545389530048922
_cell_angle_alpha    59.9999986863379
_cell_angle_beta     59.999998657998574
_cell_angle_gamma    59.99999940445487

_space_group_name_H-M_alt    "P 1"
_space_group_IT_number       1

loop_
  _space_group_symop_operation_xyz
  'x, y, z'

loop_
  _atom_site_type_symbol
  _atom_site_label
  _atom_site_symmetry_multiplicity
  _atom_site_fract_x
  _atom_site_fract_y
  _atom_site_fract_z
  _atom_site_occupancy
  Cu  Cu1       1.0  0.2499999643084368  0.2500000572044369  0.24999999397799705  1.0000
  Cu  Cu2       1.0  0.750000015092617  0.7499999979341359  0.7499999321471063  1.0000
  S   S1        1.0  0.999999978668081  0.9999999951304899  6.081196923047204e-08  1.0000
  I   I1        1.0  0.2670638307030274  0.26706382545485785  0.7329361452427868  1.0000
  I   I2        1.0  0.7329361847472311  0.7329361582642402  0.26706387013433364  1.0000
  I   I3        1.0  0.732936174062535  0.2670638187683761  0.2670638206634761  1.0000
  I   I4        1.0  0.26706384103232816  0.7329361568348727  0.7329361883467655  1.0000
  I   I5        1.0  0.2670638444510015  0.7329361595585677  0.2670638103635856  1.0000
  I   I6        1.0  0.7329361679385787  0.2670638241605306  0.7329361826882468  1.0000
