data_image0
_chemical_formula_structural       Cu2SnCl6
_chemical_formula_sum              "Cu2 Sn1 Cl6"
_cell_length_a       6.789039897406037
_cell_length_b       6.789039896164491
_cell_length_c       6.789040036702728
_cell_angle_alpha    60.00000095869533
_cell_angle_beta     60.00000108264114
_cell_angle_gamma    60.00000019824585

_space_group_name_H-M_alt    "P 1"
_space_group_IT_number       1

loop_
  _space_group_symop_operation_xyz
  'x, y, z'

loop_
  _atom_site_type_symbol
  _atom_site_label
  _atom_site_symmetry_multiplicity
  _atom_site_fract_x
  _atom_site_fract_y
  _atom_site_fract_z
  _atom_site_occupancy
  Cu  Cu1       1.0  0.2500000285965548  0.2499999692414636  0.2499998516228387  1.0000
  Cu  Cu2       1.0  0.7500000030680172  0.7499998752523409  0.7499999807059371  1.0000
  Sn  Sn1       1.0  0.9999999865820008  1.9844033786721656e-08  1.8881417173564286e-08  1.0000
  Cl  Cl1       1.0  0.2541216138590081  0.2541217306878687  0.7458783730483295  1.0000
  Cl  Cl2       1.0  0.7458783337573341  0.7458782996182529  0.25412168973420235  1.0000
  Cl  Cl3       1.0  0.7458783469359983  0.2541216873033207  0.2541216880340848  1.0000
  Cl  Cl4       1.0  0.2541216873372224  0.7458783177467578  0.7458783469939548  1.0000
  Cl  Cl5       1.0  0.254121692648867  0.7458783623700465  0.2541217169761149  1.0000
  Cl  Cl6       1.0  0.7458783041529804  0.2541217346841878  0.7458783335014407  1.0000
