data_image0
_chemical_formula_structural       Cu2SnCl6
_chemical_formula_sum              "Cu2 Sn1 Cl6"
_cell_length_a       6.789331290689948
_cell_length_b       6.78933115362038
_cell_length_c       6.789331359840573
_cell_angle_alpha    60.00000117590425
_cell_angle_beta     60.000001043888474
_cell_angle_gamma    59.99999998011472

_space_group_name_H-M_alt    "P 1"
_space_group_IT_number       1

loop_
  _space_group_symop_operation_xyz
  'x, y, z'

loop_
  _atom_site_type_symbol
  _atom_site_label
  _atom_site_symmetry_multiplicity
  _atom_site_fract_x
  _atom_site_fract_y
  _atom_site_fract_z
  _atom_site_occupancy
  Cu  Cu1       1.0  0.25000004655343605  0.25000002846270064  0.2500000031093312  1.0000
  Cu  Cu2       1.0  0.7499999791023375  0.7500000619370656  0.7499999039640168  1.0000
  Sn  Sn1       1.0  5.131746164682468e-16  1.3501133223562926e-15  6.922625642561026e-08  1.0000
  Cl  Cl1       1.0  0.25411394682470817  0.25411391589440413  0.7458860416269555  1.0000
  Cl  Cl2       1.0  0.7458860869075173  0.7458860482305675  0.25411398051572714  1.0000
  Cl  Cl3       1.0  0.7458860653266176  0.2541138815430739  0.25411398711859795  1.0000
  Cl  Cl4       1.0  0.2541139388914237  0.7458860843858227  0.745886000273544  1.0000
  Cl  Cl5       1.0  0.2541139052512917  0.7458860423241753  0.254113958807567  1.0000
  Cl  Cl6       1.0  0.7458860282217153  0.25411394705575485  0.7458860507586756  1.0000
