data_image0
_chemical_formula_structural       Cu2SF6
_chemical_formula_sum              "Cu2 S1 F6"
_cell_length_a       5.150864413747999
_cell_length_b       5.150864366416634
_cell_length_c       5.150864308854805
_cell_angle_alpha    60.00000043273474
_cell_angle_beta     60.00000083483607
_cell_angle_gamma    59.999999709625456

_space_group_name_H-M_alt    "P 1"
_space_group_IT_number       1

loop_
  _space_group_symop_operation_xyz
  'x, y, z'

loop_
  _atom_site_type_symbol
  _atom_site_label
  _atom_site_symmetry_multiplicity
  _atom_site_fract_x
  _atom_site_fract_y
  _atom_site_fract_z
  _atom_site_occupancy
  Cu  Cu1       1.0  0.25000000153124646  0.24999998037241727  0.2500000260851232  1.0000
  Cu  Cu2       1.0  0.7500000038904793  0.7500000172051337  0.7499999920275151  1.0000
  S   S1        1.0  3.0048124711825755e-08  3.0910701766326535e-08  0.9999999481649475  1.0000
  F   F1        1.0  0.25031447840839016  0.2503144825492803  0.7496854929878289  1.0000
  F   F2        1.0  0.7496855400792742  0.7496854960063001  0.2503144698601727  1.0000
  F   F3        1.0  0.7496854650623034  0.2503145177708661  0.2503145021480801  1.0000
  F   F4        1.0  0.25031450711763725  0.7496854988286554  0.749685532781574  1.0000
  F   F5        1.0  0.25031450118400256  0.7496854940203351  0.25031447229508624  1.0000
  F   F6        1.0  0.7496854654711952  0.25031449880172346  0.7496855656371404  1.0000
