data_image0
_chemical_formula_structural       Cu2SF6
_chemical_formula_sum              "Cu2 S1 F6"
_cell_length_a       5.14857321247332
_cell_length_b       5.1485732028283495
_cell_length_c       5.14857321460167
_cell_angle_alpha    59.99999999200966
_cell_angle_beta     60.0000000422589
_cell_angle_gamma    60.0000001426699

_space_group_name_H-M_alt    "P 1"
_space_group_IT_number       1

loop_
  _space_group_symop_operation_xyz
  'x, y, z'

loop_
  _atom_site_type_symbol
  _atom_site_label
  _atom_site_symmetry_multiplicity
  _atom_site_fract_x
  _atom_site_fract_y
  _atom_site_fract_z
  _atom_site_occupancy
  Cu  Cu1       1.0  0.2499999982169188  0.24999999018236121  0.25000000461583183  1.0000
  Cu  Cu2       1.0  0.7500000053203636  0.7499999990927367  0.7499999961821509  1.0000
  S   S1        1.0  4.621562713900084e-09  0.9999999928635868  0.9999999779499972  1.0000
  F   F1        1.0  0.25047106630668636  0.2504710603434787  0.7495289418419413  1.0000
  F   F2        1.0  0.7495289207383531  0.7495289313104238  0.2504710815510461  1.0000
  F   F3        1.0  0.7495289393758086  0.2504710683064557  0.25047106479055914  1.0000
  F   F4        1.0  0.2504710706176567  0.7495289352414687  0.7495289353543473  1.0000
  F   F5        1.0  0.25047105973584866  0.7495289468582251  0.2504710692634292  1.0000
  F   F6        1.0  0.7495289341501702  0.25047107809893926  0.749528930172866  1.0000
