data_image0
_chemical_formula_structural       Cu2SBr6
_chemical_formula_sum              "Cu2 S1 Br6"
_cell_length_a       6.959100807086085
_cell_length_b       6.959100704704154
_cell_length_c       6.9591011236972244
_cell_angle_alpha    59.99999929101942
_cell_angle_beta     60.000000859665796
_cell_angle_gamma    60.00000213302252

_space_group_name_H-M_alt    "P 1"
_space_group_IT_number       1

loop_
  _space_group_symop_operation_xyz
  'x, y, z'

loop_
  _atom_site_type_symbol
  _atom_site_label
  _atom_site_symmetry_multiplicity
  _atom_site_fract_x
  _atom_site_fract_y
  _atom_site_fract_z
  _atom_site_occupancy
  Cu  Cu1       1.0  0.24999996887819306  0.24999994479855023  0.25000007708956085  1.0000
  Cu  Cu2       1.0  0.7500000316978066  0.7499999470304254  0.7500000218907517  1.0000
  S   S1        1.0  0.9999999985247666  1.935910116128616e-08  0.9999999608817552  1.0000
  Br  Br1       1.0  0.2519337755407743  0.2519337740520395  0.7480662114992741  1.0000
  Br  Br2       1.0  0.7480662213456621  0.7480662532906455  0.25193374972060717  1.0000
  Br  Br3       1.0  0.7480662043698285  0.2519337696155696  0.251933811211571  1.0000
  Br  Br4       1.0  0.2519337756392554  0.7480662436477686  0.7480662244023141  1.0000
  Br  Br5       1.0  0.25193386051322086  0.7480662074283334  0.2519337601765927  1.0000
  Br  Br6       1.0  0.7480661664240529  0.25193383927345375  0.7480661878340569  1.0000
