data_image0
_chemical_formula_structural       Cu2SI6
_chemical_formula_sum              "Cu2 S1 I6"
_cell_length_a       7.545785875327554
_cell_length_b       7.545785985657158
_cell_length_c       7.545786241449812
_cell_angle_alpha    60.00000280921791
_cell_angle_beta     59.999998195687
_cell_angle_gamma    60.000002972603816

_space_group_name_H-M_alt    "P 1"
_space_group_IT_number       1

loop_
  _space_group_symop_operation_xyz
  'x, y, z'

loop_
  _atom_site_type_symbol
  _atom_site_label
  _atom_site_symmetry_multiplicity
  _atom_site_fract_x
  _atom_site_fract_y
  _atom_site_fract_z
  _atom_site_occupancy
  Cu  Cu1       1.0  0.2500000197107757  0.25000001277828005  0.24999993902474674  1.0000
  Cu  Cu2       1.0  0.7500000497041447  0.7499999977577363  0.7500000315866235  1.0000
  S   S1        1.0  0.9999999757438351  2.2885490874313748e-07  0.9999998115598433  1.0000
  I   I1        1.0  0.26714833059441784  0.2671482528733433  0.7328517487384429  1.0000
  I   I2        1.0  0.7328516057039097  0.7328517300702321  0.2671482531934546  1.0000
  I   I3        1.0  0.7328517172528407  0.2671482330574817  0.2671483797445148  1.0000
  I   I4        1.0  0.26714834055658765  0.7328516103008343  0.7328517306176788  1.0000
  I   I5        1.0  0.2671483426352604  0.7328516573688747  0.26714836678238085  1.0000
  I   I6        1.0  0.7328516187200856  0.2671482687667482  0.7328517411415024  1.0000
