data_image0
_chemical_formula_structural       Cu2SnBr6
_chemical_formula_sum              "Cu2 Sn1 Br6"
_cell_length_a       7.151864613542164
_cell_length_b       7.151864358712383
_cell_length_c       7.151864638856142
_cell_angle_alpha    59.99999789495446
_cell_angle_beta     59.99999946252492
_cell_angle_gamma    59.999999273269

_space_group_name_H-M_alt    "P 1"
_space_group_IT_number       1

loop_
  _space_group_symop_operation_xyz
  'x, y, z'

loop_
  _atom_site_type_symbol
  _atom_site_label
  _atom_site_symmetry_multiplicity
  _atom_site_fract_x
  _atom_site_fract_y
  _atom_site_fract_z
  _atom_site_occupancy
  Cu  Cu1       1.0  0.2499999527875335  0.24999991099379737  0.250000118998979  1.0000
  Cu  Cu2       1.0  0.7499999528818743  0.7500000258160545  0.7500002024705961  1.0000
  Sn  Sn1       1.0  1.9783095212838432e-08  0.999999950337982  0.9999999687976487  1.0000
  Br  Br1       1.0  0.25653570734026976  0.25653565326517314  0.7434643146766835  1.0000
  Br  Br2       1.0  0.7434643733183253  0.7434643640314029  0.2565355784340325  1.0000
  Br  Br3       1.0  0.7434643340058027  0.25653571203245623  0.2565355862385467  1.0000
  Br  Br4       1.0  0.2565356170638509  0.7434643840383547  0.7434643350759961  1.0000
  Br  Br5       1.0  0.25653568896887946  0.743464329507635  0.25653559719004965  1.0000
  Br  Br6       1.0  0.7434643555177689  0.25653566552665674  0.7434643013677574  1.0000
