data_image0
_chemical_formula_structural       Cu2SeI6
_chemical_formula_sum              "Cu2 Se1 I6"
_cell_length_a       7.699329290877442
_cell_length_b       7.6993292242761635
_cell_length_c       7.699329235915001
_cell_angle_alpha    60.00000005138561
_cell_angle_beta     59.99999978933583
_cell_angle_gamma    60.000000217268685

_space_group_name_H-M_alt    "P 1"
_space_group_IT_number       1

loop_
  _space_group_symop_operation_xyz
  'x, y, z'

loop_
  _atom_site_type_symbol
  _atom_site_label
  _atom_site_symmetry_multiplicity
  _atom_site_fract_x
  _atom_site_fract_y
  _atom_site_fract_z
  _atom_site_occupancy
  Cu  Cu1       1.0  0.2500000125279338  0.25000000587194715  0.24999998261983525  1.0000
  Cu  Cu2       1.0  0.7499999774277917  0.7500000001179618  0.7500000308461418  1.0000
  Se  Se1       1.0  0.9999999680661597  0.9999999968185671  0.9999999980754201  1.0000
  I   I1        1.0  0.2645289049880081  0.26452886423144173  0.7354711178279216  1.0000
  I   I2        1.0  0.7354711312933706  0.7354711242605877  0.26452886304076617  1.0000
  I   I3        1.0  0.735471111245696  0.2645289005330366  0.2645288773516982  1.0000
  I   I4        1.0  0.26452890447856253  0.7354710911404255  0.7354711407787511  1.0000
  I   I5        1.0  0.26452889583399275  0.7354711009390145  0.26452886472583276  1.0000
  I   I6        1.0  0.7354710984390088  0.26452891459519223  0.735471121028326  1.0000
