data_image0
_chemical_formula_structural       Cu2SeBr6
_chemical_formula_sum              "Cu2 Se1 Br6"
_cell_length_a       7.154217926284502
_cell_length_b       7.1542179036139375
_cell_length_c       7.154217965413837
_cell_angle_alpha    60.00000005634063
_cell_angle_beta     59.999999345892924
_cell_angle_gamma    59.99999956052478

_space_group_name_H-M_alt    "P 1"
_space_group_IT_number       1

loop_
  _space_group_symop_operation_xyz
  'x, y, z'

loop_
  _atom_site_type_symbol
  _atom_site_label
  _atom_site_symmetry_multiplicity
  _atom_site_fract_x
  _atom_site_fract_y
  _atom_site_fract_z
  _atom_site_occupancy
  Cu  Cu1       1.0  0.25000003605037424  0.25000001835754365  0.2499999707722209  1.0000
  Cu  Cu2       1.0  0.749999973015995  0.7499999472216714  0.7500000296163761  1.0000
  Se  Se1       1.0  0.9999999758709034  2.3966879983680233e-08  0.9999999819100098  1.0000
  Br  Br1       1.0  0.25241778540389337  0.2524178103083909  0.7475821983414989  1.0000
  Br  Br2       1.0  0.7475821491073299  0.7475821997807447  0.2524178617985692  1.0000
  Br  Br3       1.0  0.7475821817441749  0.25241785854429516  0.2524177663372395  1.0000
  Br  Br4       1.0  0.25241786271579053  0.7475821412733195  0.7475821768709306  1.0000
  Br  Br5       1.0  0.2524178496760328  0.7475821487392091  0.25241784204251183  1.0000
  Br  Br6       1.0  0.7475821850998502  0.2524178510784061  0.7475821772943169  1.0000
