data_image0
_chemical_formula_structural       Cu2SiCl6
_chemical_formula_sum              "Cu2 Si1 Cl6"
_cell_length_a       6.526849998225179
_cell_length_b       6.526850069798074
_cell_length_c       6.526849851845878
_cell_angle_alpha    59.99999973440505
_cell_angle_beta     60.00000066076616
_cell_angle_gamma    59.99999942615348

_space_group_name_H-M_alt    "P 1"
_space_group_IT_number       1

loop_
  _space_group_symop_operation_xyz
  'x, y, z'

loop_
  _atom_site_type_symbol
  _atom_site_label
  _atom_site_symmetry_multiplicity
  _atom_site_fract_x
  _atom_site_fract_y
  _atom_site_fract_z
  _atom_site_occupancy
  Cu  Cu1       1.0  0.2500000588375281  0.24999989938185158  0.2500000586082711  1.0000
  Cu  Cu2       1.0  0.7499999966075139  0.7500000096398434  0.7499999797989225  1.0000
  Si  Si1       1.0  0.9999999753391552  0.9999999943705876  0.9999998695925234  1.0000
  Cl  Cl1       1.0  0.2389865003526577  0.2389865066354771  0.7610135181158956  1.0000
  Cl  Cl2       1.0  0.7610135218004029  0.7610133854979736  0.23898655304207486  1.0000
  Cl  Cl3       1.0  0.7610134566874693  0.23898657382773217  0.23898643613715748  1.0000
  Cl  Cl4       1.0  0.23898653066800704  0.7610135659999706  0.761013471883567  1.0000
  Cl  Cl5       1.0  0.23898647235036785  0.7610135777016909  0.23898651780726757  1.0000
  Cl  Cl6       1.0  0.7610134939193998  0.2389864926965607  0.7610135978771022  1.0000
