data_image0
_chemical_formula_structural       Cu2ScCl6
_chemical_formula_sum              "Cu2 Sc1 Cl6"
_cell_length_a       6.669663727869088
_cell_length_b       6.669663355679696
_cell_length_c       6.669663530863422
_cell_angle_alpha    59.9999977320844
_cell_angle_beta     60.00000178192391
_cell_angle_gamma    59.999997842994844

_space_group_name_H-M_alt    "P 1"
_space_group_IT_number       1

loop_
  _space_group_symop_operation_xyz
  'x, y, z'

loop_
  _atom_site_type_symbol
  _atom_site_label
  _atom_site_symmetry_multiplicity
  _atom_site_fract_x
  _atom_site_fract_y
  _atom_site_fract_z
  _atom_site_occupancy
  Cu  Cu1       1.0  0.24999995539670544  0.2500000864049717  0.2499999696654314  1.0000
  Cu  Cu2       1.0  0.7500000092437941  0.7499999598993238  0.7500000875820977  1.0000
  Sc  Sc1       1.0  3.04638066364135e-08  0.9999999761282053  0.9999999472262362  1.0000
  Cl  Cl1       1.0  0.25725256835481497  0.25725260197480343  0.7427473355855047  1.0000
  Cl  Cl2       1.0  0.7427474101029201  0.7427473249705195  0.2572525330414067  1.0000
  Cl  Cl3       1.0  0.7427473507895472  0.2572526062140517  0.25725264880374826  1.0000
  Cl  Cl4       1.0  0.25725263240589186  0.7427474052006958  0.7427474555935616  1.0000
  Cl  Cl5       1.0  0.2572526291332597  0.7427474915014136  0.2572525439086363  1.0000
  Cl  Cl6       1.0  0.7427474105640535  0.25725255296658944  0.7427474917218927  1.0000
