data_image0
_chemical_formula_structural       Cu2SiF6
_chemical_formula_sum              "Cu2 Si1 F6"
_cell_length_a       5.130909785479526
_cell_length_b       5.130909519581974
_cell_length_c       5.130909643299469
_cell_angle_alpha    60.00000005143018
_cell_angle_beta     59.999999877144276
_cell_angle_gamma    60.00000020921293

_space_group_name_H-M_alt    "P 1"
_space_group_IT_number       1

loop_
  _space_group_symop_operation_xyz
  'x, y, z'

loop_
  _atom_site_type_symbol
  _atom_site_label
  _atom_site_symmetry_multiplicity
  _atom_site_fract_x
  _atom_site_fract_y
  _atom_site_fract_z
  _atom_site_occupancy
  Cu  Cu1       1.0  0.2499999980335371  0.24999998397214462  0.24999998882606622  1.0000
  Cu  Cu2       1.0  0.7499999539546843  0.7500000115912774  0.7500000366215992  1.0000
  Si  Si1       1.0  5.480716333486202e-08  0.9999999976130071  0.9999999835347751  1.0000
  F   F1        1.0  0.23326739755042356  0.2332673675549116  0.7667326223154332  1.0000
  F   F2        1.0  0.7667326670748463  0.7667326614264235  0.23326732620680649  1.0000
  F   F3        1.0  0.7667325583326712  0.23326740377483524  0.23326734157141052  1.0000
  F   F4        1.0  0.23326739524687945  0.7667325870145992  0.7667326835186119  1.0000
  F   F5        1.0  0.23326744748221545  0.7667325415925621  0.2332673727323043  1.0000
  F   F6        1.0  0.7667325444919944  0.23326744203589211  0.7667326620775163  1.0000
