data_image0
_chemical_formula_structural       Cu2ScI6
_chemical_formula_sum              "Cu2 Sc1 I6"
_cell_length_a       7.910922067321651
_cell_length_b       7.9109219923546075
_cell_length_c       7.910922029555181
_cell_angle_alpha    60.00000068482605
_cell_angle_beta     60.00000004060834
_cell_angle_gamma    60.00000000490521

_space_group_name_H-M_alt    "P 1"
_space_group_IT_number       1

loop_
  _space_group_symop_operation_xyz
  'x, y, z'

loop_
  _atom_site_type_symbol
  _atom_site_label
  _atom_site_symmetry_multiplicity
  _atom_site_fract_x
  _atom_site_fract_y
  _atom_site_fract_z
  _atom_site_occupancy
  Cu  Cu1       1.0  0.25000001315894743  0.24999994266880826  0.2500000696191261  1.0000
  Cu  Cu2       1.0  0.7500000098237728  0.7500000308166359  0.7499999617412638  1.0000
  Sc  Sc1       1.0  6.667241784258704e-08  0.9999999225915207  0.9999999080342431  1.0000
  I   I1        1.0  0.2547241088472607  0.25472415300510415  0.7452758237512276  1.0000
  I   I2        1.0  0.7452758600102903  0.7452758777626132  0.2547241365064771  1.0000
  I   I3        1.0  0.7452759129921606  0.2547240844936665  0.2547241465924946  1.0000
  I   I4        1.0  0.25472399846679833  0.745276022134361  0.7452759561233703  1.0000
  I   I5        1.0  0.25472408806499924  0.74527589958264  0.25472407668943153  1.0000
  I   I6        1.0  0.745275942997543  0.25472405842110807  0.7452759217137156  1.0000
