data_image0
_chemical_formula_structural       Cu2SBr6
_chemical_formula_sum              "Cu2 S1 Br6"
_cell_length_a       6.957721608640817
_cell_length_b       6.957721439700165
_cell_length_c       6.9577214421002465
_cell_angle_alpha    59.99999810225323
_cell_angle_beta     59.99999512913496
_cell_angle_gamma    59.99999668621339

_space_group_name_H-M_alt    "P 1"
_space_group_IT_number       1

loop_
  _space_group_symop_operation_xyz
  'x, y, z'

loop_
  _atom_site_type_symbol
  _atom_site_label
  _atom_site_symmetry_multiplicity
  _atom_site_fract_x
  _atom_site_fract_y
  _atom_site_fract_z
  _atom_site_occupancy
  Cu  Cu1       1.0  0.250000046822723  0.24999992293376871  0.24999991303555802  1.0000
  Cu  Cu2       1.0  0.7499999230235729  0.7500000029168495  0.7500002050644111  1.0000
  S   S1        1.0  2.0300562859465628e-08  8.801335846979063e-09  0.9999999926353104  1.0000
  Br  Br1       1.0  0.251964397071814  0.2519643688133355  0.7480356268138967  1.0000
  Br  Br2       1.0  0.7480355898881103  0.7480356749751864  0.2519643317761675  1.0000
  Br  Br3       1.0  0.7480356006073379  0.2519644098615798  0.25196435922186716  1.0000
  Br  Br4       1.0  0.25196445287163677  0.748035568797054  0.7480356187951438  1.0000
  Br  Br5       1.0  0.2519643927009147  0.7480356251187517  0.25196437401591887  1.0000
  Br  Br6       1.0  0.7480355743438599  0.2519644186697705  0.7480355844709559  1.0000
