data_image0
_chemical_formula_structural       Cu2SnI6
_chemical_formula_sum              "Cu2 Sn1 I6"
_cell_length_a       7.822210316901882
_cell_length_b       7.8222103015416815
_cell_length_c       7.822210375037419
_cell_angle_alpha    59.99999992746876
_cell_angle_beta     60.00000005611546
_cell_angle_gamma    60.00000050669565

_space_group_name_H-M_alt    "P 1"
_space_group_IT_number       1

loop_
  _space_group_symop_operation_xyz
  'x, y, z'

loop_
  _atom_site_type_symbol
  _atom_site_label
  _atom_site_symmetry_multiplicity
  _atom_site_fract_x
  _atom_site_fract_y
  _atom_site_fract_z
  _atom_site_occupancy
  Cu  Cu1       1.0  0.25000003086638384  0.24999997056497614  0.24999995971310515  1.0000
  Cu  Cu2       1.0  0.749999978797509  0.7499999962442054  0.7499999794190368  1.0000
  Sn  Sn1       1.0  9.737182293980008e-09  0.9999999796455443  2.064956897497177e-08  1.0000
  I   I1        1.0  0.2620978095476772  0.2620978190999278  0.7379021899375627  1.0000
  I   I2        1.0  0.7379021756018511  0.7379021946810745  0.2620978210625682  1.0000
  I   I3        1.0  0.7379021370673055  0.26209784057088226  0.26209785962133253  1.0000
  I   I4        1.0  0.26209785737167796  0.7379021763415747  0.7379021502819876  1.0000
  I   I5        1.0  0.2620978400228685  0.7379021709020801  0.2620978542546333  1.0000
  I   I6        1.0  0.7379021613646608  0.2620978428789225  0.7379021716378955  1.0000
