data_image0
_chemical_formula_structural       Cu2SeF6
_chemical_formula_sum              "Cu2 Se1 F6"
_cell_length_a       5.4614051957172185
_cell_length_b       5.461405521252489
_cell_length_c       5.461405205904987
_cell_angle_alpha    59.99999953405045
_cell_angle_beta     59.99999727506664
_cell_angle_gamma    59.999998145235644

_space_group_name_H-M_alt    "P 1"
_space_group_IT_number       1

loop_
  _space_group_symop_operation_xyz
  'x, y, z'

loop_
  _atom_site_type_symbol
  _atom_site_label
  _atom_site_symmetry_multiplicity
  _atom_site_fract_x
  _atom_site_fract_y
  _atom_site_fract_z
  _atom_site_occupancy
  Cu  Cu1       1.0  0.2499997917971504  0.24999993590923023  0.2500000345336702  1.0000
  Cu  Cu2       1.0  0.7500004992348214  0.7499997471789364  0.7499999528080441  1.0000
  Se  Se1       1.0  0.9999999363147312  1.3455273072493837e-08  6.804693001253375e-09  1.0000
  F   F1        1.0  0.24828358969289688  0.24828383549783845  0.7517163702503301  1.0000
  F   F2        1.0  0.7517161937731709  0.7517162983419249  0.24828372057079404  1.0000
  F   F3        1.0  0.7517163950798259  0.248283717569711  0.24828369464123504  1.0000
  F   F4        1.0  0.24828369694840996  0.7517162009857072  0.7517162360170789  1.0000
  F   F5        1.0  0.24828372628964376  0.7517164135509041  0.2482837169280754  1.0000
  F   F6        1.0  0.7517162091049387  0.24828380999066338  0.7517162512468543  1.0000
