data_image0
_chemical_formula_structural       Cu2SnBr6
_chemical_formula_sum              "Cu2 Sn1 Br6"
_cell_length_a       7.151390444051036
_cell_length_b       7.151390415275513
_cell_length_c       7.151390412323462
_cell_angle_alpha    60.000000188545926
_cell_angle_beta     60.00000027234765
_cell_angle_gamma    60.00000049897283

_space_group_name_H-M_alt    "P 1"
_space_group_IT_number       1

loop_
  _space_group_symop_operation_xyz
  'x, y, z'

loop_
  _atom_site_type_symbol
  _atom_site_label
  _atom_site_symmetry_multiplicity
  _atom_site_fract_x
  _atom_site_fract_y
  _atom_site_fract_z
  _atom_site_occupancy
  Cu  Cu1       1.0  0.24999999327133654  0.250000003678298  0.24999999004465004  1.0000
  Cu  Cu2       1.0  0.7499999928291688  0.7500000058971036  0.7499999578052889  1.0000
  Sn  Sn1       1.0  0.9999999696154512  0.9999999845866282  0.9999999725590992  1.0000
  Br  Br1       1.0  0.2565464053146449  0.2565463202825499  0.7434536360607586  1.0000
  Br  Br2       1.0  0.7434536385383492  0.7434536807298677  0.25654639067080914  1.0000
  Br  Br3       1.0  0.743453668390662  0.25654634110460417  0.25654638910438127  1.0000
  Br  Br4       1.0  0.25654633927118226  0.7434536667582008  0.7434536355176142  1.0000
  Br  Br5       1.0  0.25654636532185565  0.7434536351971838  0.2565463965705825  1.0000
  Br  Br6       1.0  0.7434536258184952  0.25654636410263687  0.7434536280086864  1.0000
