data_image0
_chemical_formula_structural       Cu2SeI6
_chemical_formula_sum              "Cu2 Se1 I6"
_cell_length_a       7.6978788991762
_cell_length_b       7.6978788983260875
_cell_length_c       7.697878929416365
_cell_angle_alpha    59.99999969309509
_cell_angle_beta     59.99999916220932
_cell_angle_gamma    59.99999983790906

_space_group_name_H-M_alt    "P 1"
_space_group_IT_number       1

loop_
  _space_group_symop_operation_xyz
  'x, y, z'

loop_
  _atom_site_type_symbol
  _atom_site_label
  _atom_site_symmetry_multiplicity
  _atom_site_fract_x
  _atom_site_fract_y
  _atom_site_fract_z
  _atom_site_occupancy
  Cu  Cu1       1.0  0.25000001834844565  0.2500000664121439  0.24999991896961893  1.0000
  Cu  Cu2       1.0  0.7499999950028853  0.749999965357075  0.7499999766170735  1.0000
  Se  Se1       1.0  1.031818650093893e-08  9.546096228112526e-09  2.124527798429347e-08  1.0000
  I   I1        1.0  0.26458530746258063  0.2645852894139535  0.735414725856797  1.0000
  I   I2        1.0  0.7354147026469489  0.7354147025798646  0.2645853003594647  1.0000
  I   I3        1.0  0.7354146890962723  0.2645852740455285  0.26458531666714025  1.0000
  I   I4        1.0  0.2645853165444076  0.7354146638537448  0.7354147154477543  1.0000
  I   I5        1.0  0.26458528575532825  0.735414703294782  0.2645853199046817  1.0000
  I   I6        1.0  0.735414672625441  0.2645853268834209  0.7354147039903539  1.0000
