data_image0
_chemical_formula_structural       Cu2SiI6
_chemical_formula_sum              "Cu2 Si1 I6"
_cell_length_a       7.600441328466809
_cell_length_b       7.600441309290534
_cell_length_c       7.600441240458523
_cell_angle_alpha    59.9999998973602
_cell_angle_beta     59.99999980133966
_cell_angle_gamma    59.999998632255085

_space_group_name_H-M_alt    "P 1"
_space_group_IT_number       1

loop_
  _space_group_symop_operation_xyz
  'x, y, z'

loop_
  _atom_site_type_symbol
  _atom_site_label
  _atom_site_symmetry_multiplicity
  _atom_site_fract_x
  _atom_site_fract_y
  _atom_site_fract_z
  _atom_site_occupancy
  Cu  Cu1       1.0  0.24999999314001584  0.24999998459114273  0.25000000003526684  1.0000
  Cu  Cu2       1.0  0.7500000004736709  0.7500000182299418  0.7499999507721661  1.0000
  Si  Si1       1.0  2.7778468854760234e-09  0.9999999871086973  0.9999999313767951  1.0000
  I   I1        1.0  0.24896476875480197  0.24896477474802273  0.7510352197583935  1.0000
  I   I2        1.0  0.7510352381635426  0.7510352474100157  0.2489647870924533  1.0000
  I   I3        1.0  0.7510352242184759  0.24896472476611747  0.24896482887353022  1.0000
  I   I4        1.0  0.24896476064831602  0.7510352587180127  0.7510352372857353  1.0000
  I   I5        1.0  0.24896475185561678  0.7510352437895547  0.2489647838571449  1.0000
  I   I6        1.0  0.7510352580248908  0.24896475580870367  0.751035255159633  1.0000
