data_image0
_chemical_formula_structural       Cu2SeBr6
_chemical_formula_sum              "Cu2 Se1 Br6"
_cell_length_a       7.154729896938471
_cell_length_b       7.15472980590688
_cell_length_c       7.154729934098983
_cell_angle_alpha    59.99999726721834
_cell_angle_beta     59.999999538998836
_cell_angle_gamma    59.999997583647314

_space_group_name_H-M_alt    "P 1"
_space_group_IT_number       1

loop_
  _space_group_symop_operation_xyz
  'x, y, z'

loop_
  _atom_site_type_symbol
  _atom_site_label
  _atom_site_symmetry_multiplicity
  _atom_site_fract_x
  _atom_site_fract_y
  _atom_site_fract_z
  _atom_site_occupancy
  Cu  Cu1       1.0  0.2500000396026948  0.24999993574486679  0.2500000039557584  1.0000
  Cu  Cu2       1.0  0.7500000384514964  0.750000043462663  0.7500000904713354  1.0000
  Se  Se1       1.0  0.9999999893544139  2.2253368875674608e-08  0.9999999816170171  1.0000
  Br  Br1       1.0  0.2524042742852284  0.2524042705091483  0.7475957126122111  1.0000
  Br  Br2       1.0  0.7475957420660312  0.7475957001393992  0.25240420170361344  1.0000
  Br  Br3       1.0  0.7475957309041297  0.25240425826958524  0.2524042524897112  1.0000
  Br  Br4       1.0  0.25240420511022466  0.7475957500385078  0.7475957726161075  1.0000
  Br  Br5       1.0  0.2524042615958135  0.7475957495284197  0.2524042555527912  1.0000
  Br  Br6       1.0  0.7475957135268971  0.25240426733866095  0.7475957303449108  1.0000
