data_image0
_chemical_formula_structural       Cu2SiBr6
_chemical_formula_sum              "Cu2 Si1 Br6"
_cell_length_a       6.945078555789149
_cell_length_b       6.945078659361974
_cell_length_c       6.945078982821198
_cell_angle_alpha    59.99999809105064
_cell_angle_beta     59.99999633228134
_cell_angle_gamma    59.999998427515315

_space_group_name_H-M_alt    "P 1"
_space_group_IT_number       1

loop_
  _space_group_symop_operation_xyz
  'x, y, z'

loop_
  _atom_site_type_symbol
  _atom_site_label
  _atom_site_symmetry_multiplicity
  _atom_site_fract_x
  _atom_site_fract_y
  _atom_site_fract_z
  _atom_site_occupancy
  Cu  Cu1       1.0  0.25000007293851256  0.25000001755132445  0.24999995364910102  1.0000
  Cu  Cu2       1.0  0.74999986610738  0.7499999486091504  0.7500000878839297  1.0000
  Si  Si1       1.0  0.9999999704417052  3.87963750150986e-08  0.9999999622639861  1.0000
  Br  Br1       1.0  0.2436439649074342  0.24364400316270907  0.7563559657964838  1.0000
  Br  Br2       1.0  0.7563560519269849  0.7563560688060609  0.24364391338458152  1.0000
  Br  Br3       1.0  0.7563560728901849  0.24364395356394583  0.2436439659424589  1.0000
  Br  Br4       1.0  0.2436439559370264  0.756356012596529  0.7563560494182009  1.0000
  Br  Br5       1.0  0.24364401694899004  0.7563560045180404  0.2436440208550462  1.0000
  Br  Br6       1.0  0.7563560263548037  0.24364395811549114  0.7563560797425052  1.0000
