data_image0
_chemical_formula_structural       Cu2TiI6
_chemical_formula_sum              "Cu2 Ti1 I6"
_cell_length_a       7.824554539598996
_cell_length_b       7.824554417827857
_cell_length_c       7.824554543991068
_cell_angle_alpha    60.00000066613505
_cell_angle_beta     59.99999941941494
_cell_angle_gamma    60.00000067362734

_space_group_name_H-M_alt    "P 1"
_space_group_IT_number       1

loop_
  _space_group_symop_operation_xyz
  'x, y, z'

loop_
  _atom_site_type_symbol
  _atom_site_label
  _atom_site_symmetry_multiplicity
  _atom_site_fract_x
  _atom_site_fract_y
  _atom_site_fract_z
  _atom_site_occupancy
  Cu  Cu1       1.0  0.2500000336250801  0.24999995713145437  0.2499999889568013  1.0000
  Cu  Cu2       1.0  0.7500000344950383  0.7499999731361523  0.7500000348174892  1.0000
  Ti  Ti1       1.0  3.0663176262976034e-08  0.9999999655643177  0.999999976325692  1.0000
  I   I1        1.0  0.24440727471701187  0.24440730180304804  0.7555927341339003  1.0000
  I   I2        1.0  0.7555927382482689  0.755592683248598  0.24440729110381815  1.0000
  I   I3        1.0  0.7555926972246054  0.24440732528947381  0.24440727218349573  1.0000
  I   I4        1.0  0.24440723339589412  0.755592747416635  0.7555927325069907  1.0000
  I   I5        1.0  0.24440727692212258  0.755592709640025  0.24440727523827202  1.0000
  I   I6        1.0  0.7555926857477744  0.24440733332617634  0.7555926976247966  1.0000
