data_image0
_chemical_formula_structural       Cu2TiCl6
_chemical_formula_sum              "Cu2 Ti1 Cl6"
_cell_length_a       6.6147657125461405
_cell_length_b       6.614766188553387
_cell_length_c       6.6147661437533305
_cell_angle_alpha    60.00000083551787
_cell_angle_beta     60.00000095246671
_cell_angle_gamma    60.00000046054441

_space_group_name_H-M_alt    "P 1"
_space_group_IT_number       1

loop_
  _space_group_symop_operation_xyz
  'x, y, z'

loop_
  _atom_site_type_symbol
  _atom_site_label
  _atom_site_symmetry_multiplicity
  _atom_site_fract_x
  _atom_site_fract_y
  _atom_site_fract_z
  _atom_site_occupancy
  Cu  Cu1       1.0  0.25000001890343676  0.24999990672057346  0.2499999622979103  1.0000
  Cu  Cu2       1.0  0.7499999749070939  0.7500000127037104  0.7500003061082706  1.0000
  Ti  Ti1       1.0  1.7474578606860054e-08  0.9999999685239623  7.805388416274373e-08  1.0000
  Cl  Cl1       1.0  0.24889740370880875  0.24889737836728834  0.7511025851573114  1.0000
  Cl  Cl2       1.0  0.751102637515353  0.7511025873452859  0.24889735218529252  1.0000
  Cl  Cl3       1.0  0.751102606611625  0.24889748693522004  0.2488972682163708  1.0000
  Cl  Cl4       1.0  0.24889734949658085  0.751102639860604  0.7511025721835847  1.0000
  Cl  Cl5       1.0  0.2488974185636687  0.7511026996766229  0.24889725243801733  1.0000
  Cl  Cl6       1.0  0.7511025627610802  0.24889732528496333  0.751102629294324  1.0000
