data_image0
_chemical_formula_structural       Cu2TaF6
_chemical_formula_sum              "Cu2 Ta1 F6"
_cell_length_a       5.964615889503799
_cell_length_b       5.96461558052148
_cell_length_c       5.964616203330808
_cell_angle_alpha    59.99999703801304
_cell_angle_beta     60.00000095932083
_cell_angle_gamma    59.99999915936941

_space_group_name_H-M_alt    "P 1"
_space_group_IT_number       1

loop_
  _space_group_symop_operation_xyz
  'x, y, z'

loop_
  _atom_site_type_symbol
  _atom_site_label
  _atom_site_symmetry_multiplicity
  _atom_site_fract_x
  _atom_site_fract_y
  _atom_site_fract_z
  _atom_site_occupancy
  Cu  Cu1       1.0  0.24999997155860762  0.24999998445059038  0.2499999858330629  1.0000
  Cu  Cu2       1.0  0.7499999958467853  0.7499999944187913  0.7500000103858581  1.0000
  Ta  Ta1       1.0  1.4333159015402761e-08  2.669356261339756e-08  1.1341161900808272e-08  1.0000
  F   F1        1.0  0.2301091567537109  0.2301091566672536  0.7698908382226644  1.0000
  F   F2        1.0  0.7698907452599166  0.7698908673758482  0.23010916810527796  1.0000
  F   F3        1.0  0.7698908560922103  0.23010922153845564  0.23010920884571168  1.0000
  F   F4        1.0  0.23010904343863728  0.769890763490977  0.7698910143872505  1.0000
  F   F5        1.0  0.2301092014868572  0.7698909364146198  0.23010912779040008  1.0000
  F   F6        1.0  0.7698909366315894  0.2301090239746057  0.7698907939886291  1.0000
