data_image0
_chemical_formula_structural       Cu2TeCl6
_chemical_formula_sum              "Cu2 Te1 Cl6"
_cell_length_a       6.897125727911243
_cell_length_b       6.897125451845946
_cell_length_c       6.897125915463015
_cell_angle_alpha    60.000000377318635
_cell_angle_beta     59.99999891957928
_cell_angle_gamma    60.00000051647779

_space_group_name_H-M_alt    "P 1"
_space_group_IT_number       1

loop_
  _space_group_symop_operation_xyz
  'x, y, z'

loop_
  _atom_site_type_symbol
  _atom_site_label
  _atom_site_symmetry_multiplicity
  _atom_site_fract_x
  _atom_site_fract_y
  _atom_site_fract_z
  _atom_site_occupancy
  Cu  Cu1       1.0  0.2499999255201021  0.25000001049167786  0.24999999919845634  1.0000
  Cu  Cu2       1.0  0.7499999846485412  0.7500000350264999  0.7499998584282945  1.0000
  Te  Te1       1.0  0.9999998743844943  9.056234631205387e-08  0.9999999885289959  1.0000
  Cl  Cl1       1.0  0.2527121682621028  0.2527121690777739  0.7472878540083282  1.0000
  Cl  Cl2       1.0  0.7472879026623248  0.747287816065515  0.2527122245554002  1.0000
  Cl  Cl3       1.0  0.7472878023274929  0.2527121504195544  0.2527122201046237  1.0000
  Cl  Cl4       1.0  0.2527121701077691  0.7472878489295883  0.7472877846104179  1.0000
  Cl  Cl5       1.0  0.25271230288361024  0.7472877345682228  0.2527122562942149  1.0000
  Cl  Cl6       1.0  0.747287862743549  0.2527121422553949  0.7472878232784638  1.0000
