data_image0
_chemical_formula_structural       Cu2TaI6
_chemical_formula_sum              "Cu2 Ta1 I6"
_cell_length_a       7.916995760069856
_cell_length_b       7.916995775843779
_cell_length_c       7.916995708506389
_cell_angle_alpha    60.00000060765869
_cell_angle_beta     60.00000047976662
_cell_angle_gamma    59.99999958092124

_space_group_name_H-M_alt    "P 1"
_space_group_IT_number       1

loop_
  _space_group_symop_operation_xyz
  'x, y, z'

loop_
  _atom_site_type_symbol
  _atom_site_label
  _atom_site_symmetry_multiplicity
  _atom_site_fract_x
  _atom_site_fract_y
  _atom_site_fract_z
  _atom_site_occupancy
  Cu  Cu1       1.0  0.24999994703841477  0.2499999694335311  0.2500000372902833  1.0000
  Cu  Cu2       1.0  0.7500000048194807  0.7500000428880115  0.7499999159901237  1.0000
  Ta  Ta1       1.0  0.9999999696644963  8.663098305972854e-08  0.9999999251173608  1.0000
  I   I1        1.0  0.24586604925150224  0.24586605324858113  0.75413394624675  1.0000
  I   I2        1.0  0.7541339710097045  0.7541339157574696  0.24586610059060063  1.0000
  I   I3        1.0  0.7541339522198051  0.24586601371286892  0.2458660404776388  1.0000
  I   I4        1.0  0.24586608262648618  0.7541339552931815  0.7541339270701622  1.0000
  I   I5        1.0  0.24586603866757972  0.754133943091861  0.24586608080035321  1.0000
  I   I6        1.0  0.7541339798848782  0.2458660135383353  0.7541340324452525  1.0000
