data_image0
_chemical_formula_structural       Cu2TeF6
_chemical_formula_sum              "Cu2 Te1 F6"
_cell_length_a       5.792133261097508
_cell_length_b       5.7921328578067035
_cell_length_c       5.792133412385526
_cell_angle_alpha    59.9999996120913
_cell_angle_beta     60.00000103635762
_cell_angle_gamma    60.00000034459093

_space_group_name_H-M_alt    "P 1"
_space_group_IT_number       1

loop_
  _space_group_symop_operation_xyz
  'x, y, z'

loop_
  _atom_site_type_symbol
  _atom_site_label
  _atom_site_symmetry_multiplicity
  _atom_site_fract_x
  _atom_site_fract_y
  _atom_site_fract_z
  _atom_site_occupancy
  Cu  Cu1       1.0  0.24999989393403566  0.2500001034930751  0.24999997280302308  1.0000
  Cu  Cu2       1.0  0.7499999479382587  0.7500000144496186  0.7499999074586009  1.0000
  Te  Te1       1.0  5.934403527843124e-08  0.9999999894275149  0.9999999756142255  1.0000
  F   F1        1.0  0.2495093872475093  0.24950926472149512  0.7504907359489709  1.0000
  F   F2        1.0  0.7504905786337862  0.7504905529625996  0.24950939645300654  1.0000
  F   F3        1.0  0.7504907094056965  0.24950932010829283  0.24950946883066152  1.0000
  F   F4        1.0  0.24950937157726144  0.7504905948426762  0.7504905729253674  1.0000
  F   F5        1.0  0.24950947855309386  0.7504905023046244  0.24950952928989698  1.0000
  F   F6        1.0  0.7504905659581951  0.2495096177525753  0.7504904713108441  1.0000
