data_image0
_chemical_formula_structural       Cu2TiBr6
_chemical_formula_sum              "Cu2 Ti1 Br6"
_cell_length_a       7.1262834423604335
_cell_length_b       7.12628338587705
_cell_length_c       7.126283582693772
_cell_angle_alpha    59.9999994980218
_cell_angle_beta     59.999999334602386
_cell_angle_gamma    60.00000020010543

_space_group_name_H-M_alt    "P 1"
_space_group_IT_number       1

loop_
  _space_group_symop_operation_xyz
  'x, y, z'

loop_
  _atom_site_type_symbol
  _atom_site_label
  _atom_site_symmetry_multiplicity
  _atom_site_fract_x
  _atom_site_fract_y
  _atom_site_fract_z
  _atom_site_occupancy
  Cu  Cu1       1.0  0.2500000855784037  0.24999999227064476  0.2499999700573229  1.0000
  Cu  Cu2       1.0  0.7500000472675391  0.7500000850856613  0.7500000126894125  1.0000
  Ti  Ti1       1.0  0.9999999875287269  0.9999999742205405  0.9999999672048953  1.0000
  Br  Br1       1.0  0.24742618630352298  0.24742619231532906  0.7525738222821957  1.0000
  Br  Br2       1.0  0.7525738682100646  0.7525738575428862  0.24742613479742842  1.0000
  Br  Br3       1.0  0.7525737898516446  0.24742619681098055  0.24742616970460155  1.0000
  Br  Br4       1.0  0.24742612919367565  0.7525737344617217  0.7525739115954002  1.0000
  Br  Br5       1.0  0.24742615128674314  0.7525737801994913  0.24742620733716797  1.0000
  Br  Br6       1.0  0.7525737600163078  0.24742618888308385  0.7525738056053051  1.0000
