data_image0
_chemical_formula_structural       Cu2TaCl6
_chemical_formula_sum              "Cu2 Ta1 Cl6"
_cell_length_a       6.8032843060461765
_cell_length_b       6.803284860036737
_cell_length_c       6.803284644917846
_cell_angle_alpha    60.000001560543396
_cell_angle_beta     60.000000432764296
_cell_angle_gamma    59.999999336064576

_space_group_name_H-M_alt    "P 1"
_space_group_IT_number       1

loop_
  _space_group_symop_operation_xyz
  'x, y, z'

loop_
  _atom_site_type_symbol
  _atom_site_label
  _atom_site_symmetry_multiplicity
  _atom_site_fract_x
  _atom_site_fract_y
  _atom_site_fract_z
  _atom_site_occupancy
  Cu  Cu1       1.0  0.25000021439634973  0.24999989550533208  0.24999993930157108  1.0000
  Cu  Cu2       1.0  0.749999931565371  0.7499999781525889  0.750000067584958  1.0000
  Ta  Ta1       1.0  0.9999999829420142  0.9999999747968403  0.9999999799739819  1.0000
  Cl  Cl1       1.0  0.24626600309027047  0.2462659059904386  0.7537340510364173  1.0000
  Cl  Cl2       1.0  0.7537339894641468  0.7537340612792258  0.2462659975069157  1.0000
  Cl  Cl3       1.0  0.7537341108625157  0.24626597824493246  0.24626591404233789  1.0000
  Cl  Cl4       1.0  0.2462659518270224  0.7537340790360166  0.753733998572421  1.0000
  Cl  Cl5       1.0  0.2462658768108405  0.7537341448734426  0.24626601083267632  1.0000
  Cl  Cl6       1.0  0.7537339467166503  0.24626599341767258  0.753734045532662  1.0000
