data_image0
_chemical_formula_structural       Cu2TeI6
_chemical_formula_sum              "Cu2 Te1 I6"
_cell_length_a       7.91304412571194
_cell_length_b       7.913044114811287
_cell_length_c       7.913044088028551
_cell_angle_alpha    60.00000056855553
_cell_angle_beta     60.00000032745579
_cell_angle_gamma    60.0000007993207

_space_group_name_H-M_alt    "P 1"
_space_group_IT_number       1

loop_
  _space_group_symop_operation_xyz
  'x, y, z'

loop_
  _atom_site_type_symbol
  _atom_site_label
  _atom_site_symmetry_multiplicity
  _atom_site_fract_x
  _atom_site_fract_y
  _atom_site_fract_z
  _atom_site_occupancy
  Cu  Cu1       1.0  0.2499999773744908  0.2500000410094907  0.24999997000092053  1.0000
  Cu  Cu2       1.0  0.7499999650689013  0.7500000023036318  0.7500000726836666  1.0000
  Te  Te1       1.0  0.9999999827395237  1.2382034991229845e-08  2.7713943988316456e-08  1.0000
  I   I1        1.0  0.26382586882436176  0.2638258762246892  0.7361741390836917  1.0000
  I   I2        1.0  0.736174137620646  0.7361740757709256  0.26382588440170096  1.0000
  I   I3        1.0  0.7361741420893193  0.26382588548030517  0.2638258574534073  1.0000
  I   I4        1.0  0.2638259214277724  0.7361740835406079  0.7361740999173625  1.0000
  I   I5        1.0  0.26382589692285374  0.7361741371181628  0.2638258514498456  1.0000
  I   I6        1.0  0.7361741120561833  0.2638258860741529  0.7361740947306249  1.0000
