data_image0
_chemical_formula_structural       Cu2TiBr6
_chemical_formula_sum              "Cu2 Ti1 Br6"
_cell_length_a       7.124306015299532
_cell_length_b       7.124305942804839
_cell_length_c       7.124305979935584
_cell_angle_alpha    60.000000330497485
_cell_angle_beta     60.0000007638531
_cell_angle_gamma    60.00000084291545

_space_group_name_H-M_alt    "P 1"
_space_group_IT_number       1

loop_
  _space_group_symop_operation_xyz
  'x, y, z'

loop_
  _atom_site_type_symbol
  _atom_site_label
  _atom_site_symmetry_multiplicity
  _atom_site_fract_x
  _atom_site_fract_y
  _atom_site_fract_z
  _atom_site_occupancy
  Cu  Cu1       1.0  0.2500000685488208  0.249999928613029  0.24999994876456025  1.0000
  Cu  Cu2       1.0  0.7499999949716892  0.7500000677727368  0.7500000843751142  1.0000
  Ti  Ti1       1.0  0.9999999560420298  1.0314645135274475e-08  0.9999999438320966  1.0000
  Br  Br1       1.0  0.2473972896671218  0.2473972873219933  0.7526027023467716  1.0000
  Br  Br2       1.0  0.7526026889178136  0.7526026867153721  0.24739727635418693  1.0000
  Br  Br3       1.0  0.7526026916587911  0.24739732839051723  0.24739728958512358  1.0000
  Br  Br4       1.0  0.247397292327814  0.7526027023774  0.7526027492866816  1.0000
  Br  Br5       1.0  0.24739731999413098  0.7526026782935651  0.24739730290383363  1.0000
  Br  Br6       1.0  0.7526026911863746  0.24739731465398482  0.7526027244374589  1.0000
