data_image0
_chemical_formula_structural       Cu2VBr6
_chemical_formula_sum              "Cu2 V1 Br6"
_cell_length_a       7.061101241818557
_cell_length_b       7.061101240291407
_cell_length_c       7.061100966503622
_cell_angle_alpha    60.00000103368934
_cell_angle_beta     60.00000084776323
_cell_angle_gamma    60.00000017285726

_space_group_name_H-M_alt    "P 1"
_space_group_IT_number       1

loop_
  _space_group_symop_operation_xyz
  'x, y, z'

loop_
  _atom_site_type_symbol
  _atom_site_label
  _atom_site_symmetry_multiplicity
  _atom_site_fract_x
  _atom_site_fract_y
  _atom_site_fract_z
  _atom_site_occupancy
  Cu  Cu1       1.0  0.25000006754564624  0.2499999151918579  0.2500000309407779  1.0000
  Cu  Cu2       1.0  0.75000008551886  0.7499999988119233  0.7499999227960966  1.0000
  V   V1        1.0  4.012291153548146e-08  0.9999999826550444  0.9999999999406999  1.0000
  Br  Br1       1.0  0.2447551809304317  0.24475524763262305  0.7552448146759153  1.0000
  Br  Br2       1.0  0.7552446657381485  0.7552446975920796  0.24475530780507682  1.0000
  Br  Br3       1.0  0.7552447815791248  0.24475528156338885  0.2447551296819192  1.0000
  Br  Br4       1.0  0.24475522045687192  0.755244805889947  0.7552448170930621  1.0000
  Br  Br5       1.0  0.2447552028119028  0.7552448116814257  0.24475518874045718  1.0000
  Br  Br6       1.0  0.755244758259464  0.244755251488973  0.7552447849934689  1.0000
