data_image0
_chemical_formula_structural       Cu2VF6
_chemical_formula_sum              "Cu2 V1 F6"
_cell_length_a       5.292222337490382
_cell_length_b       5.292222286746512
_cell_length_c       5.292222404809072
_cell_angle_alpha    59.99999959210215
_cell_angle_beta     59.999999386795885
_cell_angle_gamma    59.99999897176969

_space_group_name_H-M_alt    "P 1"
_space_group_IT_number       1

loop_
  _space_group_symop_operation_xyz
  'x, y, z'

loop_
  _atom_site_type_symbol
  _atom_site_label
  _atom_site_symmetry_multiplicity
  _atom_site_fract_x
  _atom_site_fract_y
  _atom_site_fract_z
  _atom_site_occupancy
  Cu  Cu1       1.0  0.24999999958760608  0.2500000555071154  0.24999996847922423  1.0000
  Cu  Cu2       1.0  0.7500000652138825  0.7499999998963881  0.7499999517454882  1.0000
  V   V1        1.0  1.3753060002203842e-08  0.9999999652864671  4.811540353275671e-09  1.0000
  F   F1        1.0  0.24952970009629016  0.2495297912012261  0.7504702480334194  1.0000
  F   F2        1.0  0.7504702798765012  0.7504702503168648  0.24952973666487055  1.0000
  F   F3        1.0  0.7504702784221152  0.24952965728478668  0.249529748417347  1.0000
  F   F4        1.0  0.24952970095703472  0.7504703009208255  0.7504702857922642  1.0000
  F   F5        1.0  0.24952972079136482  0.7504702639686704  0.24952971642101612  1.0000
  F   F6        1.0  0.7504702376500203  0.24952972432200374  0.7504703472271227  1.0000
