data_image0
_chemical_formula_structural       Cu2VF6
_chemical_formula_sum              "Cu2 V1 F6"
_cell_length_a       5.292254392238993
_cell_length_b       5.292254470602505
_cell_length_c       5.292254511074756
_cell_angle_alpha    60.00000026189591
_cell_angle_beta     60.000000071136625
_cell_angle_gamma    60.000000059768595

_space_group_name_H-M_alt    "P 1"
_space_group_IT_number       1

loop_
  _space_group_symop_operation_xyz
  'x, y, z'

loop_
  _atom_site_type_symbol
  _atom_site_label
  _atom_site_symmetry_multiplicity
  _atom_site_fract_x
  _atom_site_fract_y
  _atom_site_fract_z
  _atom_site_occupancy
  Cu  Cu1       1.0  0.2500000017340669  0.25000001111208  0.2500000271636306  1.0000
  Cu  Cu2       1.0  0.7499999834062188  0.7499999939944755  0.750000034588056  1.0000
  V   V1        1.0  2.4465739745945837e-09  0.9999999861146714  5.719377246887231e-09  1.0000
  F   F1        1.0  0.24952975326494406  0.24952982981365707  0.7504701559664397  1.0000
  F   F2        1.0  0.7504702327791004  0.7504701660360124  0.24952976635571628  1.0000
  F   F3        1.0  0.750470188880833  0.24952970923447182  0.24952986120914408  1.0000
  F   F4        1.0  0.2495297614819021  0.7504702889294195  0.7504701590473719  1.0000
  F   F5        1.0  0.2495298131525125  0.7504702852320658  0.24952978828562025  1.0000
  F   F6        1.0  0.7504702575873632  0.24952973144559623  0.7504701965374105  1.0000
