data_image0
_chemical_formula_structural       Cu2VCl6
_chemical_formula_sum              "Cu2 V1 Cl6"
_cell_length_a       6.608523599418557
_cell_length_b       6.608523566091214
_cell_length_c       6.608523261759689
_cell_angle_alpha    60.00000035831364
_cell_angle_beta     60.0000008621557
_cell_angle_gamma    59.99999871229086

_space_group_name_H-M_alt    "P 1"
_space_group_IT_number       1

loop_
  _space_group_symop_operation_xyz
  'x, y, z'

loop_
  _atom_site_type_symbol
  _atom_site_label
  _atom_site_symmetry_multiplicity
  _atom_site_fract_x
  _atom_site_fract_y
  _atom_site_fract_z
  _atom_site_occupancy
  Cu  Cu1       1.0  0.24999987243691318  0.25000013527148884  0.24999991356070803  1.0000
  Cu  Cu2       1.0  0.750000051632004  0.7500001092895551  0.7499998836315789  1.0000
  V   V1        1.0  5.735452677895218e-09  3.521233220851601e-08  0.9999999568281467  1.0000
  Cl  Cl1       1.0  0.2452083421845196  0.24520831199612314  0.7547917173722049  1.0000
  Cl  Cl2       1.0  0.7547916855621268  0.7547916267736129  0.24520831101184704  1.0000
  Cl  Cl3       1.0  0.7547916967158551  0.24520827979611906  0.2452083191754721  1.0000
  Cl  Cl4       1.0  0.24520831611674004  0.7547916775064232  0.7547917588479128  1.0000
  Cl  Cl5       1.0  0.24520829354362705  0.7547915640322451  0.2452083531344494  1.0000
  Cl  Cl6       1.0  0.7547917611028685  0.24520824686112636  0.7547917605414008  1.0000
