data_image0
_chemical_formula_structural       Cu2VI6
_chemical_formula_sum              "Cu2 V1 I6"
_cell_length_a       7.61425482468401
_cell_length_b       7.61425479790583
_cell_length_c       7.614254718674991
_cell_angle_alpha    60.000000943434955
_cell_angle_beta     60.00000007668662
_cell_angle_gamma    59.99999948414302

_space_group_name_H-M_alt    "P 1"
_space_group_IT_number       1

loop_
  _space_group_symop_operation_xyz
  'x, y, z'

loop_
  _atom_site_type_symbol
  _atom_site_label
  _atom_site_symmetry_multiplicity
  _atom_site_fract_x
  _atom_site_fract_y
  _atom_site_fract_z
  _atom_site_occupancy
  Cu  Cu1       1.0  0.2500000931802306  0.2500000814808558  0.2499998041572817  1.0000
  Cu  Cu2       1.0  0.7499999792794201  0.7499999259616602  0.7500001749404631  1.0000
  V   V1        1.0  0.9999999883595354  0.9999999211840157  0.999999975621937  1.0000
  I   I1        1.0  0.24653816790789965  0.24653817075735412  0.7534618154827302  1.0000
  I   I2        1.0  0.7534618632383301  0.7534618559870351  0.2465380800613044  1.0000
  I   I3        1.0  0.7534618276664545  0.24653819381487194  0.24653815377805605  1.0000
  I   I4        1.0  0.24653809919356395  0.7534618409719673  0.7534619698135451  1.0000
  I   I5        1.0  0.2465381639116071  0.753461852878068  0.24653815201019819  1.0000
  I   I6        1.0  0.7534618086273467  0.24653817225783306  0.7534618642612246  1.0000
