data_image0
_chemical_formula_structural       Cu2VBr6
_chemical_formula_sum              "Cu2 V1 Br6"
_cell_length_a       7.0597667685099195
_cell_length_b       7.059766817137435
_cell_length_c       7.0597668506906075
_cell_angle_alpha    59.99999952319128
_cell_angle_beta     60.00000035840309
_cell_angle_gamma    60.00000019309961

_space_group_name_H-M_alt    "P 1"
_space_group_IT_number       1

loop_
  _space_group_symop_operation_xyz
  'x, y, z'

loop_
  _atom_site_type_symbol
  _atom_site_label
  _atom_site_symmetry_multiplicity
  _atom_site_fract_x
  _atom_site_fract_y
  _atom_site_fract_z
  _atom_site_occupancy
  Cu  Cu1       1.0  0.2500000297552686  0.24999994871573644  0.2500000334718623  1.0000
  Cu  Cu2       1.0  0.7500001032718132  0.7500000838180176  0.7499998598425114  1.0000
  V   V1        1.0  0.9999999336346186  0.9999999635687079  7.972788387333747e-08  1.0000
  Br  Br1       1.0  0.24475729271391433  0.24475732821386006  0.7552426633093013  1.0000
  Br  Br2       1.0  0.7552427074150974  0.7552427546297724  0.24475728121450896  1.0000
  Br  Br3       1.0  0.7552426556642583  0.24475728971204777  0.24475729436957613  1.0000
  Br  Br4       1.0  0.24475728756721776  0.7552426890421802  0.7552426924028152  1.0000
  Br  Br5       1.0  0.24475729921977735  0.755242652424863  0.24475734662616672  1.0000
  Br  Br6       1.0  0.755242689445882  0.24475728816324913  0.7552427484139036  1.0000
