data_image0
_chemical_formula_structural       Cu2WBr6
_chemical_formula_sum              "Cu2 W1 Br6"
_cell_length_a       7.291229298357271
_cell_length_b       7.2912293151196845
_cell_length_c       7.2912292138848835
_cell_angle_alpha    59.99999981835155
_cell_angle_beta     60.00000108947474
_cell_angle_gamma    60.00000097670281

_space_group_name_H-M_alt    "P 1"
_space_group_IT_number       1

loop_
  _space_group_symop_operation_xyz
  'x, y, z'

loop_
  _atom_site_type_symbol
  _atom_site_label
  _atom_site_symmetry_multiplicity
  _atom_site_fract_x
  _atom_site_fract_y
  _atom_site_fract_z
  _atom_site_occupancy
  Cu  Cu1       1.0  0.24999995936767766  0.2499999669100045  0.2500000044875971  1.0000
  Cu  Cu2       1.0  0.7500000320688839  0.7500001039798677  0.7499999651484696  1.0000
  W   W1        1.0  7.640111124196985e-08  0.9999999798429907  0.9999999417047107  1.0000
  Br  Br1       1.0  0.2431822122064947  0.24318225627629797  0.7568177804323942  1.0000
  Br  Br2       1.0  0.7568177819364121  0.7568176449587373  0.24318229187907092  1.0000
  Br  Br3       1.0  0.756817722837069  0.24318223016984902  0.24318233911272494  1.0000
  Br  Br4       1.0  0.243182261578635  0.7568177382552201  0.7568177387550956  1.0000
  Br  Br5       1.0  0.2431822168526261  0.7568178424632582  0.24318223684044044  1.0000
  Br  Br6       1.0  0.756817736943296  0.24318223682536838  0.7568177007851996  1.0000
