data_image0
_chemical_formula_structural       Cu2WF6
_chemical_formula_sum              "Cu2 W1 F6"
_cell_length_a       5.683070381137229
_cell_length_b       5.683070370380289
_cell_length_c       5.683070686511642
_cell_angle_alpha    59.99999966441084
_cell_angle_beta     59.99999761978166
_cell_angle_gamma    60.00000066581963

_space_group_name_H-M_alt    "P 1"
_space_group_IT_number       1

loop_
  _space_group_symop_operation_xyz
  'x, y, z'

loop_
  _atom_site_type_symbol
  _atom_site_label
  _atom_site_symmetry_multiplicity
  _atom_site_fract_x
  _atom_site_fract_y
  _atom_site_fract_z
  _atom_site_occupancy
  Cu  Cu1       1.0  0.2499999822916985  0.24999994514875812  0.2500000426895909  1.0000
  Cu  Cu2       1.0  0.7499999554917774  0.7500000229378853  0.749999892764884  1.0000
  W   W1        1.0  1.4962280227887533e-08  0.9999999612086327  5.414523366238068e-08  1.0000
  F   F1        1.0  0.24616360284568725  0.24616370824961292  0.7538363027535988  1.0000
  F   F2        1.0  0.7538363818739768  0.7538363201791621  0.2461637057537886  1.0000
  F   F3        1.0  0.753836314877256  0.24616368258692475  0.24616360371217738  1.0000
  F   F4        1.0  0.24616369888306866  0.7538363501520026  0.7538363722832943  1.0000
  F   F5        1.0  0.24616364902293755  0.7538364114545523  0.24616363307881758  1.0000
  F   F6        1.0  0.7538364326292271  0.246163612664074  0.7538364258960596  1.0000
