data_image0
_chemical_formula_structural       Cu2WI6
_chemical_formula_sum              "Cu2 W1 I6"
_cell_length_a       7.777466524287017
_cell_length_b       7.77746647686176
_cell_length_c       7.777466298171981
_cell_angle_alpha    59.999999969043074
_cell_angle_beta     60.00000110849549
_cell_angle_gamma    59.99999943305662

_space_group_name_H-M_alt    "P 1"
_space_group_IT_number       1

loop_
  _space_group_symop_operation_xyz
  'x, y, z'

loop_
  _atom_site_type_symbol
  _atom_site_label
  _atom_site_symmetry_multiplicity
  _atom_site_fract_x
  _atom_site_fract_y
  _atom_site_fract_z
  _atom_site_occupancy
  Cu  Cu1       1.0  0.2500000206463634  0.2499999573986962  0.24999997773369434  1.0000
  Cu  Cu2       1.0  0.7499999945265701  0.7500000076232998  0.7499999544816652  1.0000
  W   W1        1.0  6.954041815794034e-08  0.9999999606316248  0.9999999193399242  1.0000
  I   I1        1.0  0.24757654342842658  0.2475764905861315  0.7524234704505167  1.0000
  I   I2        1.0  0.7524234633459205  0.7524234996316239  0.2475765510844552  1.0000
  I   I3        1.0  0.7524234279931397  0.24757654604378732  0.24757656581688475  1.0000
  I   I4        1.0  0.24757646143012238  0.7524235512559492  0.7524235354270534  1.0000
  I   I5        1.0  0.2475765147501277  0.7524234914986015  0.24757647927333412  1.0000
  I   I6        1.0  0.7524235138594839  0.24757649556968359  0.7524235406333354  1.0000
