data_image0
_chemical_formula_structural       Cu2YF6
_chemical_formula_sum              "Cu2 Y1 F6"
_cell_length_a       5.697527497781469
_cell_length_b       5.697527473844281
_cell_length_c       5.6975275296193395
_cell_angle_alpha    60.000000789143385
_cell_angle_beta     59.99999994142912
_cell_angle_gamma    60.00000126626236

_space_group_name_H-M_alt    "P 1"
_space_group_IT_number       1

loop_
  _space_group_symop_operation_xyz
  'x, y, z'

loop_
  _atom_site_type_symbol
  _atom_site_label
  _atom_site_symmetry_multiplicity
  _atom_site_fract_x
  _atom_site_fract_y
  _atom_site_fract_z
  _atom_site_occupancy
  Cu  Cu1       1.0  0.24999998408532875  0.24999989492336433  0.25000005146201076  1.0000
  Cu  Cu2       1.0  0.7500001263211656  0.7499998739355659  0.7499999060751108  1.0000
  Y   Y1        1.0  6.592853077041869e-09  0.9999999376613788  4.8934650979585684e-08  1.0000
  F   F1        1.0  0.2628506242089002  0.2628507650386507  0.737149335987158  1.0000
  F   F2        1.0  0.7371492462882528  0.7371492918677021  0.26285075895447574  1.0000
  F   F3        1.0  0.7371492684625196  0.2628507436270257  0.26285068383953586  1.0000
  F   F4        1.0  0.2628507422014604  0.7371493670195186  0.7371492299015195  1.0000
  F   F5        1.0  0.2628506624715281  0.7371493247183223  0.2628507559909087  1.0000
  F   F6        1.0  0.7371493423372265  0.2628508095739073  0.7371492594291962  1.0000
