data_image0
_chemical_formula_structural       Cu2YBr6
_chemical_formula_sum              "Cu2 Y1 Br6"
_cell_length_a       7.44528977706319
_cell_length_b       7.44528986803591
_cell_length_c       7.445289648955437
_cell_angle_alpha    60.0000004903541
_cell_angle_beta     60.00000126760104
_cell_angle_gamma    60.000000778322324

_space_group_name_H-M_alt    "P 1"
_space_group_IT_number       1

loop_
  _space_group_symop_operation_xyz
  'x, y, z'

loop_
  _atom_site_type_symbol
  _atom_site_label
  _atom_site_symmetry_multiplicity
  _atom_site_fract_x
  _atom_site_fract_y
  _atom_site_fract_z
  _atom_site_occupancy
  Cu  Cu1       1.0  0.2500000154613095  0.2499999157847406  0.25000001537866323  1.0000
  Cu  Cu2       1.0  0.7499999654324785  0.7500001158326207  0.7499999722153302  1.0000
  Y   Y1        1.0  0.9999999421619241  0.9999999967100144  5.04453972738329e-09  1.0000
  Br  Br1       1.0  0.2611338636681413  0.2611337530771449  0.7388662002515051  1.0000
  Br  Br2       1.0  0.7388662189597116  0.7388662571553094  0.2611337310503367  1.0000
  Br  Br3       1.0  0.7388662086971927  0.2611337704691437  0.261133845248061  1.0000
  Br  Br4       1.0  0.26113377576881763  0.7388662364733241  0.7388662187106912  1.0000
  Br  Br5       1.0  0.26113378654565345  0.7388662173201582  0.2611337856525739  1.0000
  Br  Br6       1.0  0.7388662232215175  0.2611337369825388  0.7388662288483228  1.0000
