data_image0
_chemical_formula_structural       Cu2YI6
_chemical_formula_sum              "Cu2 Y1 I6"
_cell_length_a       8.137910781037684
_cell_length_b       8.137910648032666
_cell_length_c       8.137910546620972
_cell_angle_alpha    60.00000110915535
_cell_angle_beta     59.99999994655726
_cell_angle_gamma    60.00000056168735

_space_group_name_H-M_alt    "P 1"
_space_group_IT_number       1

loop_
  _space_group_symop_operation_xyz
  'x, y, z'

loop_
  _atom_site_type_symbol
  _atom_site_label
  _atom_site_symmetry_multiplicity
  _atom_site_fract_x
  _atom_site_fract_y
  _atom_site_fract_z
  _atom_site_occupancy
  Cu  Cu1       1.0  0.25000005459536373  0.24999999396015846  0.2499999919343122  1.0000
  Cu  Cu2       1.0  0.7499999773500006  0.7499999367308684  0.7500000350702205  1.0000
  Y   Y1        1.0  8.973384773049283e-09  0.9999999262556437  1.0266785521303689e-08  1.0000
  I   I1        1.0  0.26059407191790784  0.26059400416589784  0.7394059482470013  1.0000
  I   I2        1.0  0.7394059491334949  0.7394060017744715  0.26059400111362524  1.0000
  I   I3        1.0  0.7394059491909228  0.2605940856926096  0.26059403061854397  1.0000
  I   I4        1.0  0.26059399675627787  0.7394060391417225  0.7394060135847855  1.0000
  I   I5        1.0  0.2605940694824533  0.7394059206640858  0.2605940222859527  1.0000
  I   I6        1.0  0.7394059207684055  0.26059408828625724  0.7394059471140425  1.0000
