data_image0
_chemical_formula_structural       Cu2YCl6
_chemical_formula_sum              "Cu2 Y1 Cl6"
_cell_length_a       6.8825567781068395
_cell_length_b       6.88255664428149
_cell_length_c       6.8825567778382535
_cell_angle_alpha    60.000000105463
_cell_angle_beta     60.00000106860044
_cell_angle_gamma    60.000000342132736

_space_group_name_H-M_alt    "P 1"
_space_group_IT_number       1

loop_
  _space_group_symop_operation_xyz
  'x, y, z'

loop_
  _atom_site_type_symbol
  _atom_site_label
  _atom_site_symmetry_multiplicity
  _atom_site_fract_x
  _atom_site_fract_y
  _atom_site_fract_z
  _atom_site_occupancy
  Cu  Cu1       1.0  0.25000002189874243  0.24999996595330484  0.24999996752414336  1.0000
  Cu  Cu2       1.0  0.7500000016375459  0.7499999138753358  0.7500001808600336  1.0000
  Y   Y1        1.0  3.3673638784041355e-08  0.9999999644101772  6.634077100479762e-08  1.0000
  Cl  Cl1       1.0  0.26218937925853414  0.26218944354870993  0.7378105968651115  1.0000
  Cl  Cl2       1.0  0.7378105370867368  0.7378106320239576  0.2621893619477188  1.0000
  Cl  Cl3       1.0  0.7378105589165093  0.26218951956572445  0.2621892968562356  1.0000
  Cl  Cl4       1.0  0.2621894317573088  0.7378105293145758  0.7378106032677434  1.0000
  Cl  Cl5       1.0  0.2621894689486333  0.7378106037212353  0.26218926519461244  1.0000
  Cl  Cl6       1.0  0.7378105692102076  0.262189418466698  0.7378106623096975  1.0000
