data_image0
_chemical_formula_structural       Cu2ZrCl6
_chemical_formula_sum              "Cu2 Zr1 Cl6"
_cell_length_a       6.788845057794044
_cell_length_b       6.788844809642408
_cell_length_c       6.788844898458728
_cell_angle_alpha    60.00000052736806
_cell_angle_beta     59.99999966443101
_cell_angle_gamma    59.99999933945726

_space_group_name_H-M_alt    "P 1"
_space_group_IT_number       1

loop_
  _space_group_symop_operation_xyz
  'x, y, z'

loop_
  _atom_site_type_symbol
  _atom_site_label
  _atom_site_symmetry_multiplicity
  _atom_site_fract_x
  _atom_site_fract_y
  _atom_site_fract_z
  _atom_site_occupancy
  Cu  Cu1       1.0  0.24999998762366704  0.25000006722464485  0.24999997387552708  1.0000
  Cu  Cu2       1.0  0.7499999077413785  0.7500000302887198  0.7500000407760177  1.0000
  Zr  Zr1       1.0  3.3106704391705005e-08  1.804054988581628e-08  4.3657590546982565e-08  1.0000
  Cl  Cl1       1.0  0.25611666837572905  0.25611664529331707  0.7438833313146146  1.0000
  Cl  Cl2       1.0  0.7438833309169356  0.7438833241321486  0.25611661882082726  1.0000
  Cl  Cl3       1.0  0.7438834116923334  0.2561165589733566  0.25611665114282045  1.0000
  Cl  Cl4       1.0  0.25611673413540115  0.7438833076209811  0.7438833596289081  1.0000
  Cl  Cl5       1.0  0.2561166276288606  0.743883413917901  0.2561165982995647  1.0000
  Cl  Cl6       1.0  0.7438833037818786  0.2561166366900356  0.7438833849567307  1.0000
