data_image0
_chemical_formula_structural       Cu2ZnF6
_chemical_formula_sum              "Cu2 Zn1 F6"
_cell_length_a       5.320511167475924
_cell_length_b       5.320511081771375
_cell_length_c       5.320511438226189
_cell_angle_alpha    59.99999817714289
_cell_angle_beta     59.99999803712008
_cell_angle_gamma    59.999998493590674

_space_group_name_H-M_alt    "P 1"
_space_group_IT_number       1

loop_
  _space_group_symop_operation_xyz
  'x, y, z'

loop_
  _atom_site_type_symbol
  _atom_site_label
  _atom_site_symmetry_multiplicity
  _atom_site_fract_x
  _atom_site_fract_y
  _atom_site_fract_z
  _atom_site_occupancy
  Cu  Cu1       1.0  0.25000006226722077  0.24999977835837442  0.25000014209310817  1.0000
  Cu  Cu2       1.0  0.7499999627205889  0.7500002742629374  0.7499999521958064  1.0000
  Zn  Zn1       1.0  0.9999999960317986  1.841544763846791e-08  4.540289666426585e-08  1.0000
  F   F1        1.0  0.25505557756723457  0.2550555833522436  0.7449444182135816  1.0000
  F   F2        1.0  0.7449444768416668  0.7449443679841068  0.25505552781444846  1.0000
  F   F3        1.0  0.7449443469601027  0.25505549682200873  0.25505568738715156  1.0000
  F   F4        1.0  0.2550555606369843  0.7449444522124107  0.7449443294387144  1.0000
  F   F5        1.0  0.25505559854092835  0.7449444403027053  0.25505565813077474  1.0000
  F   F6        1.0  0.7449444074409495  0.2550555846954345  0.7449442978340955  1.0000
