data_image0
_chemical_formula_structural       Cu2ZrBr6
_chemical_formula_sum              "Cu2 Zr1 Br6"
_cell_length_a       7.3266312112100245
_cell_length_b       7.3266312075361775
_cell_length_c       7.32663110767275
_cell_angle_alpha    60.00000097366083
_cell_angle_beta     60.0000007380434
_cell_angle_gamma    59.9999989154984

_space_group_name_H-M_alt    "P 1"
_space_group_IT_number       1

loop_
  _space_group_symop_operation_xyz
  'x, y, z'

loop_
  _atom_site_type_symbol
  _atom_site_label
  _atom_site_symmetry_multiplicity
  _atom_site_fract_x
  _atom_site_fract_y
  _atom_site_fract_z
  _atom_site_occupancy
  Cu  Cu1       1.0  0.24999993247346258  0.2500000063388749  0.2500000220149585  1.0000
  Cu  Cu2       1.0  0.7500000090210774  0.750000107613244  0.7500001002055329  1.0000
  Zr  Zr1       1.0  2.3353672747540427e-08  1.504470848297123e-08  0.9999998675154553  1.0000
  Br  Br1       1.0  0.2537173425817202  0.2537172873003551  0.7462826527757328  1.0000
  Br  Br2       1.0  0.7462826585508526  0.7462826193690977  0.2537172975879931  1.0000
  Br  Br3       1.0  0.7462827133067077  0.25371730676741305  0.2537172465533386  1.0000
  Br  Br4       1.0  0.2537171995652549  0.7462827653938463  0.7462828153320059  1.0000
  Br  Br5       1.0  0.2537173232963857  0.7462826927697025  0.2537172262931791  1.0000
  Br  Br6       1.0  0.7462827979014279  0.2537171988550388  0.7462827711967985  1.0000
