data_image0
_chemical_formula_structural       Cu2ZnI6
_chemical_formula_sum              "Cu2 Zn1 I6"
_cell_length_a       7.5426449927644414
_cell_length_b       7.542645010465989
_cell_length_c       7.542645015667313
_cell_angle_alpha    59.99999946537541
_cell_angle_beta     59.999999428997
_cell_angle_gamma    60.000000024674165

_space_group_name_H-M_alt    "P 1"
_space_group_IT_number       1

loop_
  _space_group_symop_operation_xyz
  'x, y, z'

loop_
  _atom_site_type_symbol
  _atom_site_label
  _atom_site_symmetry_multiplicity
  _atom_site_fract_x
  _atom_site_fract_y
  _atom_site_fract_z
  _atom_site_occupancy
  Cu  Cu1       1.0  0.25000001850622244  0.2500000704525867  0.24999994599697153  1.0000
  Cu  Cu2       1.0  0.7499999854716392  0.7500000311203481  0.7500000426808274  1.0000
  Zn  Zn1       1.0  0.9999999813347213  4.221777193947655e-08  0.9999999988301121  1.0000
  I   I1        1.0  0.25718372375397636  0.2571837211562249  0.7428163000742313  1.0000
  I   I2        1.0  0.7428162666183497  0.7428162375257893  0.2571837217747711  1.0000
  I   I3        1.0  0.7428162721122382  0.25718373379354353  0.257183703917668  1.0000
  I   I4        1.0  0.25718376465129134  0.742816200532064  0.7428162790722437  1.0000
  I   I5        1.0  0.25718375600286236  0.7428162609415864  0.25718371680804875  1.0000
  I   I6        1.0  0.7428162317560607  0.25718370098794885  0.7428162914659461  1.0000
