data_image0
_chemical_formula_structural       Cu2ZnBr6
_chemical_formula_sum              "Cu2 Zn1 Br6"
_cell_length_a       6.923747677127986
_cell_length_b       6.923747868521037
_cell_length_c       6.923747912204761
_cell_angle_alpha    59.999999798102465
_cell_angle_beta     60.00000035726524
_cell_angle_gamma    60.000000960396584

_space_group_name_H-M_alt    "P 1"
_space_group_IT_number       1

loop_
  _space_group_symop_operation_xyz
  'x, y, z'

loop_
  _atom_site_type_symbol
  _atom_site_label
  _atom_site_symmetry_multiplicity
  _atom_site_fract_x
  _atom_site_fract_y
  _atom_site_fract_z
  _atom_site_occupancy
  Cu  Cu1       1.0  0.25000001602370336  0.24999996351577963  0.2500000554879149  1.0000
  Cu  Cu2       1.0  0.7499999813094691  0.7499999807614683  0.749999949646266  1.0000
  Zn  Zn1       1.0  1.4807323882881298e-08  1.061342644704382e-08  9.127954623030343e-08  1.0000
  Br  Br1       1.0  0.25525615815507846  0.25525614549776837  0.7447438579456331  1.0000
  Br  Br2       1.0  0.7447438515921644  0.744743876611277  0.25525616705931503  1.0000
  Br  Br3       1.0  0.7447438740493623  0.2552561056472697  0.2552561740226625  1.0000
  Br  Br4       1.0  0.2552562528125446  0.7447437802561314  0.7447437579821603  1.0000
  Br  Br5       1.0  0.25525610935302745  0.7447439085487711  0.2552561451359279  1.0000
  Br  Br6       1.0  0.7447437503294249  0.2552562285390656  0.7447437991993145  1.0000
