data_image0
_chemical_formula_structural       Fe2AgBr6
_chemical_formula_sum              "Fe2 Ag1 Br6"
_cell_length_a       6.870945649059475
_cell_length_b       6.870945741135171
_cell_length_c       6.8709458157921235
_cell_angle_alpha    59.99999960841817
_cell_angle_beta     59.999998995457446
_cell_angle_gamma    60.000000147757305

_space_group_name_H-M_alt    "P 1"
_space_group_IT_number       1

loop_
  _space_group_symop_operation_xyz
  'x, y, z'

loop_
  _atom_site_type_symbol
  _atom_site_label
  _atom_site_symmetry_multiplicity
  _atom_site_fract_x
  _atom_site_fract_y
  _atom_site_fract_z
  _atom_site_occupancy
  Fe  Fe1       1.0  0.24999994528361721  0.24999994651458995  0.25000002631237805  1.0000
  Fe  Fe2       1.0  0.7499999748067547  0.7500000730510403  0.7500000353351102  1.0000
  Ag  Ag1       1.0  8.947721230954095e-08  0.9999999786100213  0.9999999688671904  1.0000
  Br  Br1       1.0  0.2625592521875075  0.2625592297429864  0.7374407373518499  1.0000
  Br  Br2       1.0  0.7374407306106221  0.7374407327827002  0.2625592545131611  1.0000
  Br  Br3       1.0  0.7374407720698061  0.26255924190098545  0.2625592639363658  1.0000
  Br  Br4       1.0  0.26255923758223065  0.7374407812296416  0.7374407293167362  1.0000
  Br  Br5       1.0  0.2625592681648931  0.7374407881705585  0.2625592040670604  1.0000
  Br  Br6       1.0  0.7374407283485278  0.2625592189175844  0.7374407877671508  1.0000
