data_image0
_chemical_formula_structural       Fe2AuI6
_chemical_formula_sum              "Fe2 Au1 I6"
_cell_length_a       7.50371918930741
_cell_length_b       7.503719207653052
_cell_length_c       7.503719140903612
_cell_angle_alpha    60.000000013646165
_cell_angle_beta     60.00000055100327
_cell_angle_gamma    59.99999936852776

_space_group_name_H-M_alt    "P 1"
_space_group_IT_number       1

loop_
  _space_group_symop_operation_xyz
  'x, y, z'

loop_
  _atom_site_type_symbol
  _atom_site_label
  _atom_site_symmetry_multiplicity
  _atom_site_fract_x
  _atom_site_fract_y
  _atom_site_fract_z
  _atom_site_occupancy
  Fe  Fe1       1.0  0.2500000041237346  0.24999991813983793  0.2500000469117373  1.0000
  Fe  Fe2       1.0  0.749999966139262  0.7500000269942051  0.7499999902490072  1.0000
  Au  Au1       1.0  3.4507850761643614e-08  0.9999999657241406  0.9999999545731402  1.0000
  I   I1        1.0  0.26591479619462305  0.2659147472920982  0.7340852629002577  1.0000
  I   I2        1.0  0.734085235869885  0.7340852386465389  0.2659147322861414  1.0000
  I   I3        1.0  0.7340851677978238  0.26591478831472776  0.26591480658625427  1.0000
  I   I4        1.0  0.2659147652823141  0.7340852776009148  0.7340852447473635  1.0000
  I   I5        1.0  0.2659147884395425  0.7340852633656634  0.2659147125743057  1.0000
  I   I6        1.0  0.7340852426915035  0.26591477153848686  0.7340852492673605  1.0000
