data_image0
_chemical_formula_structural       Fe2AgI6
_chemical_formula_sum              "Fe2 Ag1 I6"
_cell_length_a       7.478005048103346
_cell_length_b       7.478004880561483
_cell_length_c       7.478005088717033
_cell_angle_alpha    60.000000606513
_cell_angle_beta     60.000000568077276
_cell_angle_gamma    60.00000197765468

_space_group_name_H-M_alt    "P 1"
_space_group_IT_number       1

loop_
  _space_group_symop_operation_xyz
  'x, y, z'

loop_
  _atom_site_type_symbol
  _atom_site_label
  _atom_site_symmetry_multiplicity
  _atom_site_fract_x
  _atom_site_fract_y
  _atom_site_fract_z
  _atom_site_occupancy
  Fe  Fe1       1.0  0.25000007647937567  0.24999996516692974  0.25000018481792813  1.0000
  Fe  Fe2       1.0  0.7500000347359794  0.749999983941772  0.7499997717999661  1.0000
  Ag  Ag1       1.0  0.9999999285338669  0.9999999688818704  1.4222547339179484e-07  1.0000
  I   I1        1.0  0.2654380277431513  0.265438135300296  0.734561841641136  1.0000
  I   I2        1.0  0.7345619463390303  0.7345619333675321  0.26543817324221886  1.0000
  I   I3        1.0  0.734561855742912  0.2654380636594648  0.2654380650187053  1.0000
  I   I4        1.0  0.2654381279787121  0.7345619853548064  0.7345618412050282  1.0000
  I   I5        1.0  0.26543805837997525  0.7345618639121796  0.2654380850592912  1.0000
  I   I6        1.0  0.7345619428275453  0.26543810485007446  0.7345618873161328  1.0000
