data_image0
_chemical_formula_structural       Fe2AuF6
_chemical_formula_sum              "Fe2 Au1 F6"
_cell_length_a       5.583384491621547
_cell_length_b       5.583384281770312
_cell_length_c       5.583384564919702
_cell_angle_alpha    59.999997122965496
_cell_angle_beta     59.99999723070635
_cell_angle_gamma    59.999996570267584

_space_group_name_H-M_alt    "P 1"
_space_group_IT_number       1

loop_
  _space_group_symop_operation_xyz
  'x, y, z'

loop_
  _atom_site_type_symbol
  _atom_site_label
  _atom_site_symmetry_multiplicity
  _atom_site_fract_x
  _atom_site_fract_y
  _atom_site_fract_z
  _atom_site_occupancy
  Fe  Fe1       1.0  0.2499999435378275  0.24999983895582742  0.25000017327576307  1.0000
  Fe  Fe2       1.0  0.7500000206776936  0.7500002868045718  0.7500002117653493  1.0000
  Au  Au1       1.0  1.0946239929808285e-08  4.387105766139186e-09  4.870525313018674e-09  1.0000
  F   F1        1.0  0.2630519868820816  0.2630517968607589  0.7369480841015711  1.0000
  F   F2        1.0  0.7369480829142527  0.7369481424476394  0.26305176824606546  1.0000
  F   F3        1.0  0.7369482451273869  0.2630517953074459  0.2630519054627343  1.0000
  F   F4        1.0  0.26305172174415364  0.7369481549687182  0.7369480322660414  1.0000
  F   F5        1.0  0.26305182723008086  0.7369482318118827  0.2630518429132333  1.0000
  F   F6        1.0  0.7369481872077954  0.2630517184642812  0.7369479993912404  1.0000
