data_image0
_chemical_formula_structural       Fe2AgF6
_chemical_formula_sum              "Fe2 Ag1 F6"
_cell_length_a       5.472208253596503
_cell_length_b       5.472208124976875
_cell_length_c       5.4722081990314075
_cell_angle_alpha    59.99999887453556
_cell_angle_beta     59.9999992975646
_cell_angle_gamma    59.99999893800242

_space_group_name_H-M_alt    "P 1"
_space_group_IT_number       1

loop_
  _space_group_symop_operation_xyz
  'x, y, z'

loop_
  _atom_site_type_symbol
  _atom_site_label
  _atom_site_symmetry_multiplicity
  _atom_site_fract_x
  _atom_site_fract_y
  _atom_site_fract_z
  _atom_site_occupancy
  Fe  Fe1       1.0  0.249999873885786  0.24999999375719983  0.2499999552184827  1.0000
  Fe  Fe2       1.0  0.7499999568222763  0.750000146892348  0.7500002585129908  1.0000
  Ag  Ag1       1.0  5.9683151259109955e-09  0.9999999820950539  2.9724721599666723e-08  1.0000
  F   F1        1.0  0.2655683738914053  0.2655683245377885  0.7344316767688626  1.0000
  F   F2        1.0  0.73443169210769  0.7344316863009019  0.2655681278764309  1.0000
  F   F3        1.0  0.7344317677879519  0.26556832098328476  0.26556833291834364  1.0000
  F   F4        1.0  0.26556831539201015  0.7344316003306747  0.7344316760211405  1.0000
  F   F5        1.0  0.2655683615583582  0.7344317296771163  0.2655682781198314  1.0000
  F   F6        1.0  0.7344316540758651  0.2655682296848539  0.7344316505428928  1.0000
