data_image0
_chemical_formula_structural       Fe2AuCl6
_chemical_formula_sum              "Fe2 Au1 Cl6"
_cell_length_a       6.531275440457245
_cell_length_b       6.5312753944993345
_cell_length_c       6.5312754471210015
_cell_angle_alpha    59.999999662342795
_cell_angle_beta     59.999999793092805
_cell_angle_gamma    59.99999976340085

_space_group_name_H-M_alt    "P 1"
_space_group_IT_number       1

loop_
  _space_group_symop_operation_xyz
  'x, y, z'

loop_
  _atom_site_type_symbol
  _atom_site_label
  _atom_site_symmetry_multiplicity
  _atom_site_fract_x
  _atom_site_fract_y
  _atom_site_fract_z
  _atom_site_occupancy
  Fe  Fe1       1.0  0.24999993513667554  0.24999997359407963  0.2499999818530372  1.0000
  Fe  Fe2       1.0  0.7499999584162567  0.7500000557966515  0.7500000021221713  1.0000
  Au  Au1       1.0  2.7769468387411637e-08  0.9999999962495997  0.999999994114844  1.0000
  Cl  Cl1       1.0  0.258849897452287  0.25884985323995213  0.7411501460521025  1.0000
  Cl  Cl2       1.0  0.7411501027142074  0.7411501480227765  0.2588498721728627  1.0000
  Cl  Cl3       1.0  0.7411501543401596  0.2588498706077751  0.2588498481518281  1.0000
  Cl  Cl4       1.0  0.25884988420353694  0.7411501269045533  0.741150120606751  1.0000
  Cl  Cl5       1.0  0.25884987928777237  0.7411501494803232  0.2588498940775329  1.0000
  Cl  Cl6       1.0  0.7411501672745472  0.2588498292800034  0.7411501382293273  1.0000
