data_image0
_chemical_formula_structural       Fe2AuBr6
_chemical_formula_sum              "Fe2 Au1 Br6"
_cell_length_a       6.865915135864909
_cell_length_b       6.865915090572855
_cell_length_c       6.865915039748852
_cell_angle_alpha    60.00000028889765
_cell_angle_beta     60.00000050766256
_cell_angle_gamma    59.99999932875385

_space_group_name_H-M_alt    "P 1"
_space_group_IT_number       1

loop_
  _space_group_symop_operation_xyz
  'x, y, z'

loop_
  _atom_site_type_symbol
  _atom_site_label
  _atom_site_symmetry_multiplicity
  _atom_site_fract_x
  _atom_site_fract_y
  _atom_site_fract_z
  _atom_site_occupancy
  Fe  Fe1       1.0  0.250000026438173  0.2499999930271714  0.24999993802010737  1.0000
  Fe  Fe2       1.0  0.7499999842163009  0.7500000272442308  0.7499998870480566  1.0000
  Au  Au1       1.0  0.999999969710334  3.032467303546869e-08  0.9999999839613253  1.0000
  Br  Br1       1.0  0.26255988461897156  0.26255988210159825  0.7374401488944611  1.0000
  Br  Br2       1.0  0.7374401017093547  0.7374401203317614  0.26255992883454454  1.0000
  Br  Br3       1.0  0.7374401342729281  0.2625598349524786  0.26255992648360144  1.0000
  Br  Br4       1.0  0.26255989026141413  0.7374401335885994  0.7374401286979557  1.0000
  Br  Br5       1.0  0.2625598605248949  0.7374401262963513  0.26255991914018056  1.0000
  Br  Br6       1.0  0.7374401469875445  0.2625598529475525  0.7374401421138552  1.0000
