data_image0
_chemical_formula_structural       Fe2BeBr6
_chemical_formula_sum              "Fe2 Be1 Br6"
_cell_length_a       6.762189004525455
_cell_length_b       6.762189276286871
_cell_length_c       6.762189250656582
_cell_angle_alpha    59.99999925918783
_cell_angle_beta     59.999998060184545
_cell_angle_gamma    59.99999857033788

_space_group_name_H-M_alt    "P 1"
_space_group_IT_number       1

loop_
  _space_group_symop_operation_xyz
  'x, y, z'

loop_
  _atom_site_type_symbol
  _atom_site_label
  _atom_site_symmetry_multiplicity
  _atom_site_fract_x
  _atom_site_fract_y
  _atom_site_fract_z
  _atom_site_occupancy
  Fe  Fe1       1.0  0.2500000286557639  0.24999999842841494  0.24999995010939974  1.0000
  Fe  Fe2       1.0  0.7499999964331245  0.7499998848041064  0.7500000080094831  1.0000
  Be  Be1       1.0  0.9999999875467723  0.9999999963776678  1.0995402128416052e-08  1.0000
  Br  Br1       1.0  0.247712797374322  0.24771288684363507  0.7522871621889561  1.0000
  Br  Br2       1.0  0.7522871582865239  0.7522872046730021  0.24771281523055044  1.0000
  Br  Br3       1.0  0.7522871622751661  0.2477128027275861  0.24771284441427513  1.0000
  Br  Br4       1.0  0.24771283604278424  0.7522871710632456  0.7522872326496454  1.0000
  Br  Br5       1.0  0.24771284972429417  0.752287218082966  0.2477127732901546  1.0000
  Br  Br6       1.0  0.7522872116351382  0.24771282272101533  0.7522871766363864  1.0000
