data_image0
_chemical_formula_structural       Fe2BeF6
_chemical_formula_sum              "Fe2 Be1 F6"
_cell_length_a       4.995191373416497
_cell_length_b       4.9951914148153245
_cell_length_c       4.995191569654937
_cell_angle_alpha    59.999998993300345
_cell_angle_beta     60.00000020512164
_cell_angle_gamma    60.0000005596005

_space_group_name_H-M_alt    "P 1"
_space_group_IT_number       1

loop_
  _space_group_symop_operation_xyz
  'x, y, z'

loop_
  _atom_site_type_symbol
  _atom_site_label
  _atom_site_symmetry_multiplicity
  _atom_site_fract_x
  _atom_site_fract_y
  _atom_site_fract_z
  _atom_site_occupancy
  Fe  Fe1       1.0  0.25000001677707756  0.250000024207824  0.2499998372807296  1.0000
  Fe  Fe2       1.0  0.7499999326989181  0.7499998568608673  0.750000026874636  1.0000
  Be  Be1       1.0  4.202577572645584e-09  2.2066629894836826e-08  0.9999999588384432  1.0000
  F   F1        1.0  0.24137042778576104  0.2413705127738297  0.7586296066393851  1.0000
  F   F2        1.0  0.7586295203560548  0.7586295595389838  0.2413704968825216  1.0000
  F   F3        1.0  0.7586295357150005  0.24137047773675674  0.24137043355110266  1.0000
  F   F4        1.0  0.2413705089541352  0.7586296239982319  0.7586294208170119  1.0000
  F   F5        1.0  0.241370594619762  0.7586294821706048  0.24137043611134484  1.0000
  F   F6        1.0  0.7586294384472648  0.24137046019427935  0.7586296779103705  1.0000
