data_image0
_chemical_formula_structural       Fe2BeCl6
_chemical_formula_sum              "Fe2 Be1 Cl6"
_cell_length_a       6.242268973116524
_cell_length_b       6.242268607000276
_cell_length_c       6.242268788167488
_cell_angle_alpha    59.99999999531327
_cell_angle_beta     59.999999266072855
_cell_angle_gamma    60.00000100652199

_space_group_name_H-M_alt    "P 1"
_space_group_IT_number       1

loop_
  _space_group_symop_operation_xyz
  'x, y, z'

loop_
  _atom_site_type_symbol
  _atom_site_label
  _atom_site_symmetry_multiplicity
  _atom_site_fract_x
  _atom_site_fract_y
  _atom_site_fract_z
  _atom_site_occupancy
  Fe  Fe1       1.0  0.24999994379057155  0.2500000017383067  0.25000016772433664  1.0000
  Fe  Fe2       1.0  0.7500000962469943  0.7500001484422931  0.7499997528459417  1.0000
  Be  Be1       1.0  0.9999999688898759  0.9999999823418296  2.7588110790236176e-08  1.0000
  Cl  Cl1       1.0  0.2459242902229749  0.24592437327701083  0.7540755934424028  1.0000
  Cl  Cl2       1.0  0.7540757109334013  0.7540756493723615  0.24592434144887293  1.0000
  Cl  Cl3       1.0  0.7540756874739093  0.2459242200985353  0.24592438047744464  1.0000
  Cl  Cl4       1.0  0.24592435098007318  0.7540756573614438  0.7540756692350256  1.0000
  Cl  Cl5       1.0  0.24592422927761082  0.7540756603388505  0.24592439490094967  1.0000
  Cl  Cl6       1.0  0.7540757274096422  0.24592430148793712  0.7540756519095008  1.0000
