data_image0
_chemical_formula_structural       Fe2BeI6
_chemical_formula_sum              "Fe2 Be1 I6"
_cell_length_a       7.329189343941254
_cell_length_b       7.329189139234415
_cell_length_c       7.3291887801486055
_cell_angle_alpha    60.00000085511207
_cell_angle_beta     59.99999970398109
_cell_angle_gamma    59.99999941103151

_space_group_name_H-M_alt    "P 1"
_space_group_IT_number       1

loop_
  _space_group_symop_operation_xyz
  'x, y, z'

loop_
  _atom_site_type_symbol
  _atom_site_label
  _atom_site_symmetry_multiplicity
  _atom_site_fract_x
  _atom_site_fract_y
  _atom_site_fract_z
  _atom_site_occupancy
  Fe  Fe1       1.0  0.24999997706409846  0.2500000154255561  0.2500000337704832  1.0000
  Fe  Fe2       1.0  0.7500003083386877  0.7499999593820154  0.7499999671008319  1.0000
  Be  Be1       1.0  1.2827788253832045e-08  0.999999933157961  3.24647554380129e-08  1.0000
  I   I1        1.0  0.24202362878139905  0.24202367911680642  0.7579763298836046  1.0000
  I   I2        1.0  0.7579763689279888  0.7579763458222956  0.24202361103127037  1.0000
  I   I3        1.0  0.7579762615138126  0.2420236990263033  0.2420236383878803  1.0000
  I   I4        1.0  0.24202351553253654  0.7579763309259528  0.7579763489536051  1.0000
  I   I5        1.0  0.24202356367430863  0.757976443497054  0.2420236941127466  1.0000
  I   I6        1.0  0.7579763721298339  0.2420235780999468  0.7579763394597323  1.0000
