data_image0
_chemical_formula_structural       Fe2CoBr6
_chemical_formula_sum              "Fe2 Co1 Br6"
_cell_length_a       6.781079757420578
_cell_length_b       6.781079529500971
_cell_length_c       6.781079796654819
_cell_angle_alpha    59.99999991070454
_cell_angle_beta     60.0000007080169
_cell_angle_gamma    59.99999975809221

_space_group_name_H-M_alt    "P 1"
_space_group_IT_number       1

loop_
  _space_group_symop_operation_xyz
  'x, y, z'

loop_
  _atom_site_type_symbol
  _atom_site_label
  _atom_site_symmetry_multiplicity
  _atom_site_fract_x
  _atom_site_fract_y
  _atom_site_fract_z
  _atom_site_occupancy
  Fe  Fe1       1.0  0.2500000841377406  0.24999992359167328  0.24999994581128704  1.0000
  Fe  Fe2       1.0  0.750000119141056  0.7500000326625343  0.7499996831700134  1.0000
  Co  Co1       1.0  0.999999992294493  0.999999987357154  0.9999999718322001  1.0000
  Br  Br1       1.0  0.25302995072235807  0.2530298914826897  0.7469700686851862  1.0000
  Br  Br2       1.0  0.7469700583308756  0.7469700701898836  0.25303003222070763  1.0000
  Br  Br3       1.0  0.7469700811461452  0.2530299589035054  0.25302993586666467  1.0000
  Br  Br4       1.0  0.25302991359381855  0.7469701580954567  0.7469700901085968  1.0000
  Br  Br5       1.0  0.2530297922630319  0.7469700897625586  0.253030058818884  1.0000
  Br  Br6       1.0  0.7469700035236594  0.25302989358346467  0.7469702219409639  1.0000
