data_image0
_chemical_formula_structural       Fe2CuCl6
_chemical_formula_sum              "Fe2 Cu1 Cl6"
_cell_length_a       6.3705503959484915
_cell_length_b       6.370550565016709
_cell_length_c       6.370550385913055
_cell_angle_alpha    60.000000073601825
_cell_angle_beta     60.0000004281289
_cell_angle_gamma    60.00000103905919

_space_group_name_H-M_alt    "P 1"
_space_group_IT_number       1

loop_
  _space_group_symop_operation_xyz
  'x, y, z'

loop_
  _atom_site_type_symbol
  _atom_site_label
  _atom_site_symmetry_multiplicity
  _atom_site_fract_x
  _atom_site_fract_y
  _atom_site_fract_z
  _atom_site_occupancy
  Fe  Fe1       1.0  0.2500000112651182  0.25000012735695487  0.24999983984301055  1.0000
  Fe  Fe2       1.0  0.7499999415245688  0.7500000879267954  0.7499999952866159  1.0000
  Cu  Cu1       1.0  5.3644879432812454e-08  0.9999999750073673  0.9999999841041539  1.0000
  Cl  Cl1       1.0  0.2536132247614384  0.2536131125946511  0.7463868404610703  1.0000
  Cl  Cl2       1.0  0.7463868019821018  0.7463868047000127  0.2536131694750984  1.0000
  Cl  Cl3       1.0  0.7463868353580254  0.2536131161624126  0.253613241658377  1.0000
  Cl  Cl4       1.0  0.25361318468502586  0.7463867722945965  0.7463868959274794  1.0000
  Cl  Cl5       1.0  0.2536131563270289  0.7463868354541668  0.253613194962133  1.0000
  Cl  Cl6       1.0  0.7463867786701425  0.25361317219847707  0.746386848632414  1.0000
