data_image0
_chemical_formula_structural       Fe2CrBr6
_chemical_formula_sum              "Fe2 Cr1 Br6"
_cell_length_a       6.873725358088028
_cell_length_b       6.873725174801416
_cell_length_c       6.873725071139921
_cell_angle_alpha    60.00000125702799
_cell_angle_beta     60.00000177369813
_cell_angle_gamma    60.00000068653818

_space_group_name_H-M_alt    "P 1"
_space_group_IT_number       1

loop_
  _space_group_symop_operation_xyz
  'x, y, z'

loop_
  _atom_site_type_symbol
  _atom_site_label
  _atom_site_symmetry_multiplicity
  _atom_site_fract_x
  _atom_site_fract_y
  _atom_site_fract_z
  _atom_site_occupancy
  Fe  Fe1       1.0  0.2500000846995033  0.2500000666495997  0.2500000129785581  1.0000
  Fe  Fe2       1.0  0.7500001478122762  0.7499999594088389  0.7499998719220031  1.0000
  Cr  Cr1       1.0  0.9999999798414898  0.9999999999999997  0.9999999766185046  1.0000
  Br  Br1       1.0  0.25112973310707204  0.2511298186798429  0.7488702028480091  1.0000
  Br  Br2       1.0  0.748870185879335  0.7488701753066007  0.2511298533964196  1.0000
  Br  Br3       1.0  0.7488701840147692  0.25112973431462077  0.25112982297451636  1.0000
  Br  Br4       1.0  0.25112972618213597  0.7488702507629355  0.7488702173872477  1.0000
  Br  Br5       1.0  0.25112977107177326  0.748870200897531  0.25112977716164125  1.0000
  Br  Br6       1.0  0.7488701745888441  0.2511298037795775  0.7488702487618283  1.0000
