data_image0
_chemical_formula_structural       Fe2CaF6
_chemical_formula_sum              "Fe2 Ca1 F6"
_cell_length_a       5.539121528743627
_cell_length_b       5.539121336423734
_cell_length_c       5.539121284012586
_cell_angle_alpha    59.99999684211248
_cell_angle_beta     59.999996711524396
_cell_angle_gamma    59.99999707978323

_space_group_name_H-M_alt    "P 1"
_space_group_IT_number       1

loop_
  _space_group_symop_operation_xyz
  'x, y, z'

loop_
  _atom_site_type_symbol
  _atom_site_label
  _atom_site_symmetry_multiplicity
  _atom_site_fract_x
  _atom_site_fract_y
  _atom_site_fract_z
  _atom_site_occupancy
  Fe  Fe1       1.0  0.25000059921379675  0.24999949859490145  0.2500000381054871  1.0000
  Fe  Fe2       1.0  0.750000001439239  0.7500003884705299  0.7500006618370048  1.0000
  Ca  Ca1       1.0  7.715291511936298e-08  0.9999999624116109  7.229010078703909e-08  1.0000
  F   F1        1.0  0.266083488023224  0.26608302131193867  0.7339166215613154  1.0000
  F   F2        1.0  0.7339163580740051  0.7339171531941318  0.2660828369755896  1.0000
  F   F3        1.0  0.7339165984446296  0.266083396617873  0.2660830322177064  1.0000
  F   F4        1.0  0.2660828468982742  0.7339168044211747  0.7339167343876998  1.0000
  F   F5        1.0  0.26608334430189273  0.7339168365425623  0.26608312438331666  1.0000
  F   F6        1.0  0.7339166749316219  0.26608293112448783  0.7339168590119136  1.0000
