data_image0
_chemical_formula_structural       Fe2CO6
_chemical_formula_sum              "Fe2 C1 O6"
_cell_length_a       4.759915855664022
_cell_length_b       4.75994998768626
_cell_length_c       4.480636915124382
_cell_angle_alpha    57.910096904690775
_cell_angle_beta     57.929215635420434
_cell_angle_gamma    59.99897436721683

_space_group_name_H-M_alt    "P 1"
_space_group_IT_number       1

loop_
  _space_group_symop_operation_xyz
  'x, y, z'

loop_
  _atom_site_type_symbol
  _atom_site_label
  _atom_site_symmetry_multiplicity
  _atom_site_fract_x
  _atom_site_fract_y
  _atom_site_fract_z
  _atom_site_occupancy
  Fe  Fe1       1.0  0.25743018136124246  0.25736376967152774  0.22755980091721273  1.0000
  Fe  Fe2       1.0  0.7424193814793958  0.742489071256648  0.772356301861193  1.0000
  C   C1        1.0  0.9999554336380001  0.9998617328268887  0.9999585835983249  1.0000
  O   O1        1.0  0.2886967712370362  0.1651828076504461  0.7602032975659763  1.0000
  O   O2        1.0  0.7113177413912533  0.8345666240647911  0.23973853875197906  1.0000
  O   O3        1.0  0.8346842160317136  0.2141969620763573  0.23970715170477555  1.0000
  O   O4        1.0  0.16531074530174272  0.7855340575289393  0.7603021714831025  1.0000
  O   O5        1.0  0.21431461196134913  0.7111160670224117  0.23982577406883965  1.0000
  O   O6        1.0  0.7856709826823346  0.28866411985437157  0.7601795018809717  1.0000
