data_image0
_chemical_formula_structural       Fe2CuI6
_chemical_formula_sum              "Fe2 Cu1 I6"
_cell_length_a       7.301758577594777
_cell_length_b       7.301758219442711
_cell_length_c       7.301758630061374
_cell_angle_alpha    59.99999931537232
_cell_angle_beta     59.99999860977343
_cell_angle_gamma    59.999999862217784

_space_group_name_H-M_alt    "P 1"
_space_group_IT_number       1

loop_
  _space_group_symop_operation_xyz
  'x, y, z'

loop_
  _atom_site_type_symbol
  _atom_site_label
  _atom_site_symmetry_multiplicity
  _atom_site_fract_x
  _atom_site_fract_y
  _atom_site_fract_z
  _atom_site_occupancy
  Fe  Fe1       1.0  0.2500001026314757  0.2500001961844508  0.2499998239255814  1.0000
  Fe  Fe2       1.0  0.7499998153556238  0.7499999075578851  0.750000179062789  1.0000
  Cu  Cu1       1.0  0.9999999953517261  0.9999999949680138  7.579196179014114e-09  1.0000
  I   I1        1.0  0.2534172331535786  0.25341718870483443  0.7465827630854974  1.0000
  I   I2        1.0  0.7465828023231725  0.7465827523366162  0.2534172159443627  1.0000
  I   I3        1.0  0.7465827327841275  0.2534172466709497  0.25341717012061293  1.0000
  I   I4        1.0  0.25341727513731643  0.7465827295944042  0.7465828352046773  1.0000
  I   I5        1.0  0.2534172963103849  0.7465827544206445  0.25341714452946285  1.0000
  I   I6        1.0  0.7465827478873447  0.2534172268766964  0.7465828579456206  1.0000
