data_image0
_chemical_formula_structural       Fe2CI6
_chemical_formula_sum              "Fe2 C1 I6"
_cell_length_a       7.30609726977557
_cell_length_b       7.306097000595379
_cell_length_c       7.306097390703417
_cell_angle_alpha    59.99999931232098
_cell_angle_beta     59.99999875051512
_cell_angle_gamma    60.00000321763605

_space_group_name_H-M_alt    "P 1"
_space_group_IT_number       1

loop_
  _space_group_symop_operation_xyz
  'x, y, z'

loop_
  _atom_site_type_symbol
  _atom_site_label
  _atom_site_symmetry_multiplicity
  _atom_site_fract_x
  _atom_site_fract_y
  _atom_site_fract_z
  _atom_site_occupancy
  Fe  Fe1       1.0  0.24999986863215248  0.25000006280510795  0.25000002057330345  1.0000
  Fe  Fe2       1.0  0.7499999984618454  0.749999935289116  0.7499997538430748  1.0000
  C   C1        1.0  0.9999998984533497  0.9999998826567122  1.0123264996004521e-07  1.0000
  I   I1        1.0  0.244672240053429  0.24467215858194374  0.7553278245507349  1.0000
  I   I2        1.0  0.7553278664379516  0.7553279937348982  0.2446721595654173  1.0000
  I   I3        1.0  0.7553279386624743  0.24467212313766198  0.24467220303684234  1.0000
  I   I4        1.0  0.2446721894487485  0.7553277794056228  0.7553279238992806  1.0000
  I   I5        1.0  0.2446720601039962  0.755327832155079  0.2446721783379088  1.0000
  I   I6        1.0  0.7553279313506528  0.2446722195817995  0.7553278396757225  1.0000
