data_image0
_chemical_formula_structural       Fe2CBr6
_chemical_formula_sum              "Fe2 C1 Br6"
_cell_length_a       6.801602729955675
_cell_length_b       6.8016026786112445
_cell_length_c       6.801602675738713
_cell_angle_alpha    60.000000349852094
_cell_angle_beta     60.00000071443845
_cell_angle_gamma    60.000000482370524

_space_group_name_H-M_alt    "P 1"
_space_group_IT_number       1

loop_
  _space_group_symop_operation_xyz
  'x, y, z'

loop_
  _atom_site_type_symbol
  _atom_site_label
  _atom_site_symmetry_multiplicity
  _atom_site_fract_x
  _atom_site_fract_y
  _atom_site_fract_z
  _atom_site_occupancy
  Fe  Fe1       1.0  0.24999996322276988  0.2499999933743005  0.250000023500968  1.0000
  Fe  Fe2       1.0  0.7500000230648559  0.7500000179369929  0.749999977546377  1.0000
  C   C1        1.0  0.9999999840175944  7.202683923256721e-09  1.4493773911288374e-09  1.0000
  Br  Br1       1.0  0.2491080533662841  0.2491080518525509  0.7508919465575559  1.0000
  Br  Br2       1.0  0.7508919584043439  0.7508919288473358  0.24910805117302456  1.0000
  Br  Br3       1.0  0.7508919428217523  0.24910806931237806  0.2491080431098606  1.0000
  Br  Br4       1.0  0.24910806114596817  0.7508919347962315  0.7508919541690209  1.0000
  Br  Br5       1.0  0.24910807099963903  0.7508919391423138  0.2491080392596036  1.0000
  Br  Br6       1.0  0.750891942759955  0.24910805596294094  0.7508919576250184  1.0000
