data_image0
_chemical_formula_structural       Fe2CaCl6
_chemical_formula_sum              "Fe2 Ca1 Cl6"
_cell_length_a       6.60107994162422
_cell_length_b       6.601079939381402
_cell_length_c       6.601079923468073
_cell_angle_alpha    59.99999989344168
_cell_angle_beta     59.99999971371033
_cell_angle_gamma    59.99999990750125

_space_group_name_H-M_alt    "P 1"
_space_group_IT_number       1

loop_
  _space_group_symop_operation_xyz
  'x, y, z'

loop_
  _atom_site_type_symbol
  _atom_site_label
  _atom_site_symmetry_multiplicity
  _atom_site_fract_x
  _atom_site_fract_y
  _atom_site_fract_z
  _atom_site_occupancy
  Fe  Fe1       1.0  0.24999999706918302  0.2500001946764522  0.24999992400833115  1.0000
  Fe  Fe2       1.0  0.7499999874697673  0.7500001071991483  0.7500000092791818  1.0000
  Ca  Ca1       1.0  4.426205324800606e-08  0.9999999721694431  0.999999994814059  1.0000
  Cl  Cl1       1.0  0.2683236979548818  0.26832364560754596  0.7316763204909347  1.0000
  Cl  Cl2       1.0  0.7316763506429869  0.731676201702292  0.268323782296639  1.0000
  Cl  Cl3       1.0  0.731676252555296  0.26832367181588807  0.26832371099156616  1.0000
  Cl  Cl4       1.0  0.2683236097357133  0.7316762831054365  0.7316763417643796  1.0000
  Cl  Cl5       1.0  0.2683237643893148  0.7316763019771686  0.26832358612612317  1.0000
  Cl  Cl6       1.0  0.7316762893138129  0.2683236139813764  0.7316763358686215  1.0000
