data_image0
_chemical_formula_structural       Fe2CrCl6
_chemical_formula_sum              "Fe2 Cr1 Cl6"
_cell_length_a       6.478824077582832
_cell_length_b       6.478824183326182
_cell_length_c       6.478824216528199
_cell_angle_alpha    59.99999957409512
_cell_angle_beta     60.00000004286893
_cell_angle_gamma    60.00000046793031

_space_group_name_H-M_alt    "P 1"
_space_group_IT_number       1

loop_
  _space_group_symop_operation_xyz
  'x, y, z'

loop_
  _atom_site_type_symbol
  _atom_site_label
  _atom_site_symmetry_multiplicity
  _atom_site_fract_x
  _atom_site_fract_y
  _atom_site_fract_z
  _atom_site_occupancy
  Fe  Fe1       1.0  0.2500005349379922  0.249999664279312  0.24999980898686475  1.0000
  Fe  Fe2       1.0  0.750000027990554  0.7500001516417294  0.7499991960757648  1.0000
  Cr  Cr1       1.0  0.9999999675948252  1.701343254928795e-08  0.9999999907174816  1.0000
  Cl  Cl1       1.0  0.25100345221221826  0.25100330081183414  0.748996705226056  1.0000
  Cl  Cl2       1.0  0.7489964562776585  0.7489967514068726  0.2510036665245264  1.0000
  Cl  Cl3       1.0  0.7489964934198747  0.2510032988517217  0.2510035702070431  1.0000
  Cl  Cl4       1.0  0.2510034207967914  0.748996639944102  0.7489967010425923  1.0000
  Cl  Cl5       1.0  0.25100319148291944  0.7489966749436221  0.25100358026848385  1.0000
  Cl  Cl6       1.0  0.7489964622845622  0.25100349447873077  0.748996781523484  1.0000
