data_image0
_chemical_formula_structural       Fe2CoF6
_chemical_formula_sum              "Fe2 Co1 F6"
_cell_length_a       4.434821917619329
_cell_length_b       4.434822436737887
_cell_length_c       4.434822873178034
_cell_angle_alpha    60.00001662572559
_cell_angle_beta     60.00001202873091
_cell_angle_gamma    60.00000836112826

_space_group_name_H-M_alt    "P 1"
_space_group_IT_number       1

loop_
  _space_group_symop_operation_xyz
  'x, y, z'

loop_
  _atom_site_type_symbol
  _atom_site_label
  _atom_site_symmetry_multiplicity
  _atom_site_fract_x
  _atom_site_fract_y
  _atom_site_fract_z
  _atom_site_occupancy
  Fe  Fe1       1.0  0.2500000430673102  0.250000201893416  0.2500000715539912  1.0000
  Fe  Fe2       1.0  0.7500002631874285  0.7499998600335228  0.7500001957895602  1.0000
  Co  Co1       1.0  0.9999999886645968  2.761655866689182e-09  1.1051516911619367e-08  1.0000
  F   F1        1.0  0.2609324665730835  0.26092829046387983  0.7390684891296375  1.0000
  F   F2        1.0  0.7390672919542254  0.7390718211728411  0.26093189643953973  1.0000
  F   F3        1.0  0.7390717549482245  0.2609317152356987  0.26092907429788603  1.0000
  F   F4        1.0  0.26092795549817216  0.7390686421881587  0.7390705517379329  1.0000
  F   F5        1.0  0.2609305973202434  0.7390682431618963  0.26093018991551226  1.0000
  F   F6        1.0  0.7390695721832953  0.2609312526257736  0.7390695336852181  1.0000
