data_image0
_chemical_formula_structural       Fe2CoI6
_chemical_formula_sum              "Fe2 Co1 I6"
_cell_length_a       7.282732051029871
_cell_length_b       7.282732170750532
_cell_length_c       7.282732351823392
_cell_angle_alpha    59.99999982819665
_cell_angle_beta     60.00000128732511
_cell_angle_gamma    60.00000156879475

_space_group_name_H-M_alt    "P 1"
_space_group_IT_number       1

loop_
  _space_group_symop_operation_xyz
  'x, y, z'

loop_
  _atom_site_type_symbol
  _atom_site_label
  _atom_site_symmetry_multiplicity
  _atom_site_fract_x
  _atom_site_fract_y
  _atom_site_fract_z
  _atom_site_occupancy
  Fe  Fe1       1.0  0.25000011625932483  0.24999976089206116  0.24999995288734134  1.0000
  Fe  Fe2       1.0  0.7500000340123942  0.7500000747619214  0.7500002159321227  1.0000
  Co  Co1       1.0  1.1194904013957312e-08  0.9999999949548679  3.262600057724286e-08  1.0000
  I   I1        1.0  0.25070956452572896  0.2507094936278949  0.749290486545301  1.0000
  I   I2        1.0  0.7492904201910717  0.7492905152422891  0.2507094601188679  1.0000
  I   I3        1.0  0.7492904365930871  0.2507095547064881  0.2507094914350754  1.0000
  I   I4        1.0  0.25070942784580547  0.7492905533846264  0.7492904039675846  1.0000
  I   I5        1.0  0.25070954472734275  0.7492905765686683  0.2507094600831184  1.0000
  I   I6        1.0  0.74929043865946  0.2507094743442834  0.7492904964331082  1.0000
