data_image0
_chemical_formula_structural       Fe2CoF6
_chemical_formula_sum              "Fe2 Co1 F6"
_cell_length_a       5.235684903886339
_cell_length_b       5.235684883806433
_cell_length_c       5.235685015649215
_cell_angle_alpha    60.00000065185392
_cell_angle_beta     60.00000046953139
_cell_angle_gamma    60.000002171275256

_space_group_name_H-M_alt    "P 1"
_space_group_IT_number       1

loop_
  _space_group_symop_operation_xyz
  'x, y, z'

loop_
  _atom_site_type_symbol
  _atom_site_label
  _atom_site_symmetry_multiplicity
  _atom_site_fract_x
  _atom_site_fract_y
  _atom_site_fract_z
  _atom_site_occupancy
  Fe  Fe1       1.0  0.2500001851262246  0.2499999913225629  0.2500001139446982  1.0000
  Fe  Fe2       1.0  0.7500001295982985  0.749999749402007  0.7500000940161917  1.0000
  Co  Co1       1.0  0.9999999722657164  0.99999995087626  3.269910179241157e-08  1.0000
  F   F1        1.0  0.24909436640822968  0.24909462125099321  0.7509055005500631  1.0000
  F   F2        1.0  0.7509054267994937  0.750905559247991  0.24909447897628495  1.0000
  F   F3        1.0  0.7509053531158273  0.2490945537002502  0.24909447985984975  1.0000
  F   F4        1.0  0.24909455731680374  0.7509054934628714  0.7509054179533972  1.0000
  F   F5        1.0  0.24909449418801835  0.7509054334431774  0.24909449545448137  1.0000
  F   F6        1.0  0.7509055166476898  0.24909463009452662  0.750905387899241  1.0000
