data_image0
_chemical_formula_structural       Fe2CrCl6
_chemical_formula_sum              "Fe2 Cr1 Cl6"
_cell_length_a       6.476994030728264
_cell_length_b       6.476993945252538
_cell_length_c       6.4769940901745215
_cell_angle_alpha    59.99999920217957
_cell_angle_beta     59.99999968052493
_cell_angle_gamma    59.999999316286896

_space_group_name_H-M_alt    "P 1"
_space_group_IT_number       1

loop_
  _space_group_symop_operation_xyz
  'x, y, z'

loop_
  _atom_site_type_symbol
  _atom_site_label
  _atom_site_symmetry_multiplicity
  _atom_site_fract_x
  _atom_site_fract_y
  _atom_site_fract_z
  _atom_site_occupancy
  Fe  Fe1       1.0  0.24999998511873908  0.2500000830408234  0.24999995110051845  1.0000
  Fe  Fe2       1.0  0.7499998726505381  0.7500000051943586  0.7500001077100885  1.0000
  Cr  Cr1       1.0  3.0433826763935366e-09  0.9999999962181688  6.544928518001505e-09  1.0000
  Cl  Cl1       1.0  0.2510409035310698  0.2510409013040299  0.7489591113113312  1.0000
  Cl  Cl2       1.0  0.7489591415931041  0.74895908482171  0.2510408647344708  1.0000
  Cl  Cl3       1.0  0.7489591300663804  0.25104090326778755  0.2510408706619639  1.0000
  Cl  Cl4       1.0  0.2510409274476109  0.7489590563851342  0.7489590969860781  1.0000
  Cl  Cl5       1.0  0.25104093319101145  0.7489590661353506  0.25104088750858006  1.0000
  Cl  Cl6       1.0  0.748959094843888  0.2510409124267271  0.748959096231912  1.0000
