data_image0
_chemical_formula_structural       Fe2CF6
_chemical_formula_sum              "Fe2 C1 F6"
_cell_length_a       4.911102444453245
_cell_length_b       4.911102558136677
_cell_length_c       4.911102711169575
_cell_angle_alpha    60.000000049111115
_cell_angle_beta     59.999998845992955
_cell_angle_gamma    59.999999599850305

_space_group_name_H-M_alt    "P 1"
_space_group_IT_number       1

loop_
  _space_group_symop_operation_xyz
  'x, y, z'

loop_
  _atom_site_type_symbol
  _atom_site_label
  _atom_site_symmetry_multiplicity
  _atom_site_fract_x
  _atom_site_fract_y
  _atom_site_fract_z
  _atom_site_occupancy
  Fe  Fe1       1.0  0.2500003097108189  0.2499998499397215  0.2499997268163846  1.0000
  Fe  Fe2       1.0  0.7499997215628409  0.7499995822389515  0.7500002689298968  1.0000
  C   C1        1.0  0.9999999980032581  1.0474080662396932e-07  0.9999999201211324  1.0000
  F   F1        1.0  0.22618475215233028  0.22618492029351614  0.773815137976365  1.0000
  F   F2        1.0  0.7738151979086416  0.7738152774905828  0.22618487801761195  1.0000
  F   F3        1.0  0.773815238910423  0.22618491129299587  0.22618470604896668  1.0000
  F   F4        1.0  0.22618479738724515  0.7738151617996656  0.7738153373171904  1.0000
  F   F5        1.0  0.2261848211622104  0.7738152561783377  0.22618476058021467  1.0000
  F   F6        1.0  0.7738151799610762  0.2261848942230151  0.7738152841170165  1.0000
