data_image0
_chemical_formula_structural       Fe2CoS6
_chemical_formula_sum              "Fe2 Co1 S6"
_cell_length_a       5.9397647212580225
_cell_length_b       5.939764774524796
_cell_length_c       5.939764669531995
_cell_angle_alpha    60.00000063167598
_cell_angle_beta     60.000000748966734
_cell_angle_gamma    60.000000434101636

_space_group_name_H-M_alt    "P 1"
_space_group_IT_number       1

loop_
  _space_group_symop_operation_xyz
  'x, y, z'

loop_
  _atom_site_type_symbol
  _atom_site_label
  _atom_site_symmetry_multiplicity
  _atom_site_fract_x
  _atom_site_fract_y
  _atom_site_fract_z
  _atom_site_occupancy
  Fe  Fe1       1.0  0.2500000040874913  0.24999999160213413  0.24999995180525617  1.0000
  Fe  Fe2       1.0  0.7499999688472447  0.7499999067623265  0.7499998707397797  1.0000
  Co  Co1       1.0  4.6461030978099614e-08  0.9999999422656326  0.9999999500789117  1.0000
  S   S1        1.0  0.25481870714843163  0.2548185466536718  0.7451814061435423  1.0000
  S   S2        1.0  0.745181380719175  0.7451813393391381  0.2548187102524024  1.0000
  S   S3        1.0  0.745181365569793  0.2548186141332434  0.2548187067463877  1.0000
  S   S4        1.0  0.25481863597257637  0.7451814491865522  0.7451814281242811  1.0000
  S   S5        1.0  0.25481857048372913  0.7451814580273474  0.254818586528497  1.0000
  S   S6        1.0  0.7451813236052934  0.2548187351947751  0.7451814041157792  1.0000
