data_image0
_chemical_formula_structural       Fe2CoBr6
_chemical_formula_sum              "Fe2 Co1 Br6"
_cell_length_a       6.779412625396134
_cell_length_b       6.779412569640994
_cell_length_c       6.779412585817819
_cell_angle_alpha    59.99999979512149
_cell_angle_beta     60.000000266682875
_cell_angle_gamma    59.99999994675269

_space_group_name_H-M_alt    "P 1"
_space_group_IT_number       1

loop_
  _space_group_symop_operation_xyz
  'x, y, z'

loop_
  _atom_site_type_symbol
  _atom_site_label
  _atom_site_symmetry_multiplicity
  _atom_site_fract_x
  _atom_site_fract_y
  _atom_site_fract_z
  _atom_site_occupancy
  Fe  Fe1       1.0  0.24999999350620555  0.24999999745279736  0.24999998186663777  1.0000
  Fe  Fe2       1.0  0.7500000534836776  0.7499999471942697  0.7500000113523628  1.0000
  Co  Co1       1.0  1.0907254761306766e-08  2.348534365638745e-08  0.9999999754284306  1.0000
  Br  Br1       1.0  0.2531005548785618  0.25310062741838524  0.7468994152684395  1.0000
  Br  Br2       1.0  0.7468994413917738  0.7468993569731095  0.2531006276897428  1.0000
  Br  Br3       1.0  0.7468994127494757  0.2531005653977684  0.25310065446332064  1.0000
  Br  Br4       1.0  0.25310056588621466  0.7468994208002911  0.7468993978839559  1.0000
  Br  Br5       1.0  0.2531006267451717  0.7468994415147845  0.25310053048456127  1.0000
  Br  Br6       1.0  0.7468993456442703  0.2531006042999166  0.7468994169996537  1.0000
