data_image0
_chemical_formula_structural       Fe2CuBr6
_chemical_formula_sum              "Fe2 Cu1 Br6"
_cell_length_a       6.829384226074107
_cell_length_b       6.829384159152703
_cell_length_c       6.829384250770007
_cell_angle_alpha    60.00000029846966
_cell_angle_beta     60.00000026379802
_cell_angle_gamma    60.00000038762454

_space_group_name_H-M_alt    "P 1"
_space_group_IT_number       1

loop_
  _space_group_symop_operation_xyz
  'x, y, z'

loop_
  _atom_site_type_symbol
  _atom_site_label
  _atom_site_symmetry_multiplicity
  _atom_site_fract_x
  _atom_site_fract_y
  _atom_site_fract_z
  _atom_site_occupancy
  Fe  Fe1       1.0  0.2500000244382808  0.2499999473979964  0.250000028598493  1.0000
  Fe  Fe2       1.0  0.7500000009510467  0.7499999426213642  0.7500000673709071  1.0000
  Cu  Cu1       1.0  0.9999999826995164  0.99999999103327  1.1669345844495944e-08  1.0000
  Br  Br1       1.0  0.25280715463184505  0.2528071847594802  0.7471928308779978  1.0000
  Br  Br2       1.0  0.7471928318840562  0.7471928523142507  0.2528071421806712  1.0000
  Br  Br3       1.0  0.7471928258974699  0.25280721014252017  0.2528071364305222  1.0000
  Br  Br4       1.0  0.25280716719403307  0.7471928072044046  0.747192830025401  1.0000
  Br  Br5       1.0  0.2528071873863396  0.7471928575612046  0.2528071494242844  1.0000
  Br  Br6       1.0  0.7471928217924859  0.25280720282602426  0.7471928094317386  1.0000
