data_image0
_chemical_formula_structural       Fe2CI6
_chemical_formula_sum              "Fe2 C1 I6"
_cell_length_a       7.305916767811551
_cell_length_b       7.305916978335694
_cell_length_c       7.305916970377081
_cell_angle_alpha    59.99999884240755
_cell_angle_beta     60.000001107498534
_cell_angle_gamma    59.999998365447894

_space_group_name_H-M_alt    "P 1"
_space_group_IT_number       1

loop_
  _space_group_symop_operation_xyz
  'x, y, z'

loop_
  _atom_site_type_symbol
  _atom_site_label
  _atom_site_symmetry_multiplicity
  _atom_site_fract_x
  _atom_site_fract_y
  _atom_site_fract_z
  _atom_site_occupancy
  Fe  Fe1       1.0  0.2499998822399844  0.25000014339898263  0.2500000072030393  1.0000
  Fe  Fe2       1.0  0.7499999457936262  0.7499999691941027  0.7500002079677384  1.0000
  C   C1        1.0  1.2898724362801362e-08  4.19093492759474e-08  0.9999999397458771  1.0000
  I   I1        1.0  0.24454590387134617  0.244545986555044  0.755454037108545  1.0000
  I   I2        1.0  0.7554540555219237  0.7554539785171364  0.24454591923591057  1.0000
  I   I3        1.0  0.7554540133473694  0.2445460189021301  0.2445459074590913  1.0000
  I   I4        1.0  0.2445460378737803  0.755453993108518  0.7554540342523347  1.0000
  I   I5        1.0  0.24454604485232428  0.755454007283316  0.24454591657088953  1.0000
  I   I6        1.0  0.7554541054638152  0.24454586391191907  0.7554540022006364  1.0000
