data_image0
_chemical_formula_structural       Fe2CrBr6
_chemical_formula_sum              "Fe2 Cr1 Br6"
_cell_length_a       6.871325898130844
_cell_length_b       6.871325896748082
_cell_length_c       6.87132586105773
_cell_angle_alpha    60.0000003976371
_cell_angle_beta     60.0000003417244
_cell_angle_gamma    59.99999945506111

_space_group_name_H-M_alt    "P 1"
_space_group_IT_number       1

loop_
  _space_group_symop_operation_xyz
  'x, y, z'

loop_
  _atom_site_type_symbol
  _atom_site_label
  _atom_site_symmetry_multiplicity
  _atom_site_fract_x
  _atom_site_fract_y
  _atom_site_fract_z
  _atom_site_occupancy
  Fe  Fe1       1.0  0.24999998192790313  0.2500000278109612  0.2500000074312764  1.0000
  Fe  Fe2       1.0  0.7500000358006355  0.7499999747065053  0.7499999123120523  1.0000
  Cr  Cr1       1.0  5.8935613912230004e-08  0.9999999643520068  0.9999998937601811  1.0000
  Br  Br1       1.0  0.25122325614566793  0.25122325220363345  0.748776752231395  1.0000
  Br  Br2       1.0  0.7487767461703866  0.7487767360546365  0.2512232885863683  1.0000
  Br  Br3       1.0  0.7487766887525196  0.25122328643548913  0.2512232950257432  1.0000
  Br  Br4       1.0  0.2512232168422489  0.7487767802483651  0.7487767811356888  1.0000
  Br  Br5       1.0  0.2512232643164162  0.7487767311568015  0.2512232749311533  1.0000
  Br  Br6       1.0  0.7487767549062003  0.2512232517542694  0.7487767863027462  1.0000
