data_image0
_chemical_formula_structural       Fe2CF6
_chemical_formula_sum              "Fe2 C1 F6"
_cell_length_a       4.51640688518212
_cell_length_b       3.2167128758228967
_cell_length_c       4.7288561311794535
_cell_angle_alpha    38.91050922838153
_cell_angle_beta     38.874619816292565
_cell_angle_gamma    41.82053772861485

_space_group_name_H-M_alt    "P 1"
_space_group_IT_number       1

loop_
  _space_group_symop_operation_xyz
  'x, y, z'

loop_
  _atom_site_type_symbol
  _atom_site_label
  _atom_site_symmetry_multiplicity
  _atom_site_fract_x
  _atom_site_fract_y
  _atom_site_fract_z
  _atom_site_occupancy
  Fe  Fe1       1.0  0.943657581906389  0.5337492791383648  0.25640063852662065  1.0000
  Fe  Fe2       1.0  0.7236824192190492  0.8500170839626799  0.698869175771832  1.0000
  C   C1        1.0  0.777305170997976  0.12733294583689803  0.017783645597289375  1.0000
  F   F1        1.0  0.3071911241885209  0.40006999157722173  0.8604029831984524  1.0000
  F   F2        1.0  0.969219302162671  0.33561074578944927  0.8597003915910739  1.0000
  F   F3        1.0  0.8423762316994202  0.281342190019834  0.08921343361375546  1.0000
  F   F4        1.0  0.19618277520345767  0.6361555747153703  0.9665248402666254  1.0000
  F   F5        1.0  0.33831476502126606  0.606297212176201  0.2956880625451799  1.0000
  F   F6        1.0  0.8802764076256944  0.2551466037071519  0.9304989578846918  1.0000
