data_image0
_chemical_formula_structural       Fe2CoTe6
_chemical_formula_sum              "Fe2 Co1 Te6"
_cell_length_a       6.815825258466328
_cell_length_b       6.815825042855817
_cell_length_c       6.81582534301328
_cell_angle_alpha    59.999998044137065
_cell_angle_beta     60.00000040930476
_cell_angle_gamma    59.99999451048382

_space_group_name_H-M_alt    "P 1"
_space_group_IT_number       1

loop_
  _space_group_symop_operation_xyz
  'x, y, z'

loop_
  _atom_site_type_symbol
  _atom_site_label
  _atom_site_symmetry_multiplicity
  _atom_site_fract_x
  _atom_site_fract_y
  _atom_site_fract_z
  _atom_site_occupancy
  Fe  Fe1       1.0  0.2499999030509706  0.24999998187427272  0.2500000168411109  1.0000
  Fe  Fe2       1.0  0.7499999268227505  0.7500000803913327  0.7500000327589217  1.0000
  Co  Co1       1.0  1.2475630582274279e-08  0.9999999676555528  7.155570587079144e-08  1.0000
  Te  Te1       1.0  0.25221108352988275  0.2522110958447671  0.7477889207517956  1.0000
  Te  Te2       1.0  0.747789072509576  0.7477889789992207  0.2522107702107656  1.0000
  Te  Te3       1.0  0.7477889370276485  0.2522110608489962  0.25221104771700464  1.0000
  Te  Te4       1.0  0.25221106873202886  0.7477888396943693  0.7477890931018122  1.0000
  Te  Te5       1.0  0.25221117791603925  0.747788809891789  0.25221103167342757  1.0000
  Te  Te6       1.0  0.7477888200217421  0.25221117510652014  0.7477890048060467  1.0000
