data_image0
_chemical_formula_structural       Fe2CdCl6
_chemical_formula_sum              "Fe2 Cd1 Cl6"
_cell_length_a       6.51547467197125
_cell_length_b       6.515474796999008
_cell_length_c       6.515474615916212
_cell_angle_alpha    60.000000467841424
_cell_angle_beta     59.99999995246644
_cell_angle_gamma    60.00000141559888

_space_group_name_H-M_alt    "P 1"
_space_group_IT_number       1

loop_
  _space_group_symop_operation_xyz
  'x, y, z'

loop_
  _atom_site_type_symbol
  _atom_site_label
  _atom_site_symmetry_multiplicity
  _atom_site_fract_x
  _atom_site_fract_y
  _atom_site_fract_z
  _atom_site_occupancy
  Fe  Fe1       1.0  0.2500001077078599  0.24999987677290425  0.24999992524756942  1.0000
  Fe  Fe2       1.0  0.7500001378395904  0.7499998671669164  0.7500000246911622  1.0000
  Cd  Cd1       1.0  0.9999999807018901  2.067722426110044e-08  0.9999999824275592  1.0000
  Cl  Cl1       1.0  0.26537431956513513  0.2653744214263065  0.7346255855847565  1.0000
  Cl  Cl2       1.0  0.7346256268078586  0.7346256458301109  0.2653742832165622  1.0000
  Cl  Cl3       1.0  0.7346256350949679  0.26537442321309407  0.2653743811619141  1.0000
  Cl  Cl4       1.0  0.26537433068363997  0.7346256177268556  0.7346256399711695  1.0000
  Cl  Cl5       1.0  0.2653743361955258  0.7346256909702978  0.2653744469582352  1.0000
  Cl  Cl6       1.0  0.7346255203827607  0.2653744383177908  0.7346257242684316  1.0000
