data_image0
_chemical_formula_structural       Fe2CrSe6
_chemical_formula_sum              "Fe2 Cr1 Se6"
_cell_length_a       6.18478621951702
_cell_length_b       6.18478640959704
_cell_length_c       6.18478625106276
_cell_angle_alpha    60.00000018842492
_cell_angle_beta     60.0000009481328
_cell_angle_gamma    60.00000123537133

_space_group_name_H-M_alt    "P 1"
_space_group_IT_number       1

loop_
  _space_group_symop_operation_xyz
  'x, y, z'

loop_
  _atom_site_type_symbol
  _atom_site_label
  _atom_site_symmetry_multiplicity
  _atom_site_fract_x
  _atom_site_fract_y
  _atom_site_fract_z
  _atom_site_occupancy
  Fe  Fe1       1.0  0.2499998096401464  0.25000004745816984  0.24999999057705802  1.0000
  Fe  Fe2       1.0  0.7499999710886895  0.7500000057369769  0.7500000001783378  1.0000
  Cr  Cr1       1.0  3.264504664529886e-08  0.9999999524739015  3.816107075663908e-08  1.0000
  Se  Se1       1.0  0.2767206324811441  0.27672047963061985  0.723279389755145  1.0000
  Se  Se2       1.0  0.7232794985095  0.7232795141569065  0.27672039413207156  1.0000
  Se  Se3       1.0  0.7232795481287634  0.27672044900129134  0.2767206485554866  1.0000
  Se  Se4       1.0  0.27672053826425425  0.7232793705238709  0.7232795163960122  1.0000
  Se  Se5       1.0  0.27672049517342495  0.7232795183254076  0.27672057778562875  1.0000
  Se  Se6       1.0  0.7232794717442637  0.27672065962574616  0.7232794434374749  1.0000
