data_image0
_chemical_formula_structural       Fe2CoO6
_chemical_formula_sum              "Fe2 Co1 O6"
_cell_length_a       2.9879649068278953
_cell_length_b       3.2168590541144213
_cell_length_c       2.6727545688221728
_cell_angle_alpha    53.773570475749636
_cell_angle_beta     74.88497982549329
_cell_angle_gamma    63.928856402710075

_space_group_name_H-M_alt    "P 1"
_space_group_IT_number       1

loop_
  _space_group_symop_operation_xyz
  'x, y, z'

loop_
  _atom_site_type_symbol
  _atom_site_label
  _atom_site_symmetry_multiplicity
  _atom_site_fract_x
  _atom_site_fract_y
  _atom_site_fract_z
  _atom_site_occupancy
  Fe  Fe1       1.0  0.4238316619288868  0.06953049330256222  0.6854908220315103  1.0000
  Fe  Fe2       1.0  0.8979263827083372  0.6790388716815365  0.5366167465314297  1.0000
  Co  Co1       1.0  0.09559069947851417  0.5284844675215065  0.02948429176049532  1.0000
  O   O1        1.0  0.31442305631732825  0.505692107729658  0.6317783037043703  1.0000
  O   O2        1.0  0.5939642080378141  0.15467275610192743  0.5364678653026782  1.0000
  O   O3        1.0  0.24590139123134466  0.9442745371153838  0.9070700969860954  1.0000
  O   O4        1.0  0.5025995117498506  0.6046642951215493  0.8752521247214041  1.0000
  O   O5        1.0  0.42846003419434664  0.17259327078143327  0.08295559387996931  1.0000
  O   O6        1.0  0.012574656481126878  0.4154216760588056  0.7509355551359834  1.0000
