data_image0
_chemical_formula_structural       Fe2CaBr6
_chemical_formula_sum              "Fe2 Ca1 Br6"
_cell_length_a       7.104651740714752
_cell_length_b       7.104651810833038
_cell_length_c       7.104651761286487
_cell_angle_alpha    60.00000021815588
_cell_angle_beta     59.9999997622866
_cell_angle_gamma    60.00000057890848

_space_group_name_H-M_alt    "P 1"
_space_group_IT_number       1

loop_
  _space_group_symop_operation_xyz
  'x, y, z'

loop_
  _atom_site_type_symbol
  _atom_site_label
  _atom_site_symmetry_multiplicity
  _atom_site_fract_x
  _atom_site_fract_y
  _atom_site_fract_z
  _atom_site_occupancy
  Fe  Fe1       1.0  0.2499999864925424  0.2499999812221741  0.25000002983554387  1.0000
  Fe  Fe2       1.0  0.7500000100244685  0.7499999919346956  0.7499999908356261  1.0000
  Ca  Ca1       1.0  6.222242747704193e-09  0.9999999862090935  2.3768033606449246e-09  1.0000
  Br  Br1       1.0  0.27183843552781695  0.27183844745344343  0.7281615580109547  1.0000
  Br  Br2       1.0  0.7281615587554692  0.7281615860386422  0.2718384307944126  1.0000
  Br  Br3       1.0  0.7281615602081354  0.27183844225899695  0.2718384292083727  1.0000
  Br  Br4       1.0  0.2718384177238219  0.7281615964046787  0.7281615525191073  1.0000
  Br  Br5       1.0  0.27183844857864403  0.7281615496804834  0.2718384387962523  1.0000
  Br  Br6       1.0  0.7281615723174762  0.27183842347638637  0.7281615710928914  1.0000
