data_image0
_chemical_formula_structural       Fe2CdI6
_chemical_formula_sum              "Fe2 Cd1 I6"
_cell_length_a       7.639489100933083
_cell_length_b       7.639489187329827
_cell_length_c       7.639489056172961
_cell_angle_alpha    59.99999969385185
_cell_angle_beta     59.99999992476457
_cell_angle_gamma    59.999999949632844

_space_group_name_H-M_alt    "P 1"
_space_group_IT_number       1

loop_
  _space_group_symop_operation_xyz
  'x, y, z'

loop_
  _atom_site_type_symbol
  _atom_site_label
  _atom_site_symmetry_multiplicity
  _atom_site_fract_x
  _atom_site_fract_y
  _atom_site_fract_z
  _atom_site_occupancy
  Fe  Fe1       1.0  0.2499999928000777  0.25000007921435946  0.2499999280497841  1.0000
  Fe  Fe2       1.0  0.7500000290942282  0.7499999041823875  0.7499999765832368  1.0000
  Cd  Cd1       1.0  3.358804956908178e-08  3.526988049452734e-08  0.9999999865148437  1.0000
  I   I1        1.0  0.2686116538797826  0.2686116733739498  0.731388368587205  1.0000
  I   I2        1.0  0.7313883012496674  0.7313882971973847  0.26861172113862547  1.0000
  I   I3        1.0  0.7313883142572245  0.2686117247532114  0.26861168108210387  1.0000
  I   I4        1.0  0.2686117262176571  0.7313882618498873  0.7313883186854865  1.0000
  I   I5        1.0  0.26861166625141913  0.7313882868061876  0.26861172194250393  1.0000
  I   I6        1.0  0.731388283777709  0.26861173987632114  0.7313882964633177  1.0000
