data_image0
_chemical_formula_structural       Fe2CaI6
_chemical_formula_sum              "Fe2 Ca1 I6"
_cell_length_a       7.815647456191222
_cell_length_b       7.8156475076295315
_cell_length_c       7.815647496351155
_cell_angle_alpha    59.99999977559423
_cell_angle_beta     60.00000012570272
_cell_angle_gamma    59.99999991012991

_space_group_name_H-M_alt    "P 1"
_space_group_IT_number       1

loop_
  _space_group_symop_operation_xyz
  'x, y, z'

loop_
  _atom_site_type_symbol
  _atom_site_label
  _atom_site_symmetry_multiplicity
  _atom_site_fract_x
  _atom_site_fract_y
  _atom_site_fract_z
  _atom_site_occupancy
  Fe  Fe1       1.0  0.25000000059853006  0.25000002215253003  0.2499999876228898  1.0000
  Fe  Fe2       1.0  0.749999982724861  0.7499999818373164  0.7500000147141711  1.0000
  Ca  Ca1       1.0  4.136780137222126e-08  0.9999999999999998  1.130321254557611e-08  1.0000
  I   I1        1.0  0.27370751760083  0.273707510164191  0.7262924866330432  1.0000
  I   I2        1.0  0.7262924716476232  0.7262924671859396  0.27370752862031344  1.0000
  I   I3        1.0  0.7262924843675149  0.27370753093529365  0.27370751960183987  1.0000
  I   I4        1.0  0.2737075322503577  0.7262924573841316  0.7262924841590671  1.0000
  I   I5        1.0  0.2737075009576008  0.7262924984621105  0.27370750129100174  1.0000
  I   I6        1.0  0.726292466531504  0.2737075353015361  0.726292469766096  1.0000
