data_image0
_chemical_formula_structural       Fe2CdBr6
_chemical_formula_sum              "Fe2 Cd1 Br6"
_cell_length_a       6.92877640628814
_cell_length_b       6.928776503345898
_cell_length_c       6.92877643745728
_cell_angle_alpha    59.999999469949124
_cell_angle_beta     59.99999959006595
_cell_angle_gamma    59.999999415316125

_space_group_name_H-M_alt    "P 1"
_space_group_IT_number       1

loop_
  _space_group_symop_operation_xyz
  'x, y, z'

loop_
  _atom_site_type_symbol
  _atom_site_label
  _atom_site_symmetry_multiplicity
  _atom_site_fract_x
  _atom_site_fract_y
  _atom_site_fract_z
  _atom_site_occupancy
  Fe  Fe1       1.0  0.2500000239189349  0.24999993894413658  0.2500000007869703  1.0000
  Fe  Fe2       1.0  0.7500000442806325  0.7500000342497554  0.7499999910991862  1.0000
  Cd  Cd1       1.0  0.9999999362011351  0.9999999664152072  2.848624146569325e-08  1.0000
  Br  Br1       1.0  0.26913185746671003  0.269131853213693  0.730868139891222  1.0000
  Br  Br2       1.0  0.7308681736128219  0.7308682313403035  0.26913180044233687  1.0000
  Br  Br3       1.0  0.730868154460703  0.2691318402947392  0.26913182643083783  1.0000
  Br  Br4       1.0  0.2691317704000426  0.7308681629487056  0.7308682105539032  1.0000
  Br  Br5       1.0  0.2691318575592307  0.730868135096968  0.2691318543094379  1.0000
  Br  Br6       1.0  0.7308681800536111  0.269131839864545  0.7308681404402209  1.0000
