data_image0
_chemical_formula_structural       Fe2CoCl6
_chemical_formula_sum              "Fe2 Co1 Cl6"
_cell_length_a       6.349202911202318
_cell_length_b       6.349202797252591
_cell_length_c       6.349202895066793
_cell_angle_alpha    59.9999982779937
_cell_angle_beta     59.999998863747344
_cell_angle_gamma    59.99999805829746

_space_group_name_H-M_alt    "P 1"
_space_group_IT_number       1

loop_
  _space_group_symop_operation_xyz
  'x, y, z'

loop_
  _atom_site_type_symbol
  _atom_site_label
  _atom_site_symmetry_multiplicity
  _atom_site_fract_x
  _atom_site_fract_y
  _atom_site_fract_z
  _atom_site_occupancy
  Fe  Fe1       1.0  0.24999997812039165  0.2500000950914834  0.25000005683630944  1.0000
  Fe  Fe2       1.0  0.7499999840040213  0.7499999071954941  0.7499996685016236  1.0000
  Co  Co1       1.0  0.9999999935700852  1.92897426350205e-08  3.294510739182512e-08  1.0000
  Cl  Cl1       1.0  0.25009099921586414  0.250091024301791  0.7499089466201636  1.0000
  Cl  Cl2       1.0  0.7499089969303067  0.749908974127234  0.2500911652610852  1.0000
  Cl  Cl3       1.0  0.7499089947551607  0.2500909344829352  0.25009109409315927  1.0000
  Cl  Cl4       1.0  0.2500911012720736  0.749908944349683  0.7499090024457477  1.0000
  Cl  Cl5       1.0  0.25009095557240696  0.7499089797779374  0.25009108319199147  1.0000
  Cl  Cl6       1.0  0.7499089914133112  0.25009111702877757  0.7499089584056134  1.0000
