data_image0
_chemical_formula_structural       Fe2CrO6
_chemical_formula_sum              "Fe2 Cr1 O6"
_cell_length_a       2.0432917719711177
_cell_length_b       3.5147805640424052
_cell_length_c       3.622307740910782
_cell_angle_alpha    39.690532356862626
_cell_angle_beta     63.98098896394504
_cell_angle_gamma    57.49711314922334

_space_group_name_H-M_alt    "P 1"
_space_group_IT_number       1

loop_
  _space_group_symop_operation_xyz
  'x, y, z'

loop_
  _atom_site_type_symbol
  _atom_site_label
  _atom_site_symmetry_multiplicity
  _atom_site_fract_x
  _atom_site_fract_y
  _atom_site_fract_z
  _atom_site_occupancy
  Fe  Fe1       1.0  0.1239709449350169  0.8955430528341887  0.8907536787462297  1.0000
  Fe  Fe2       1.0  0.42403254185001227  0.7999485429982466  0.4826532930008698  1.0000
  Cr  Cr1       1.0  0.16383005875395695  0.5133393087135389  0.9725314171792284  1.0000
  O   O1        1.0  0.6890802207299245  0.34562299821083875  0.07824869209466384  1.0000
  O   O2        1.0  0.5402647506064547  0.4572008972987646  0.24210537401614637  1.0000
  O   O3        1.0  0.08521392544288561  0.9583843833489951  0.38414951578481  1.0000
  O   O4        1.0  0.6077130324732206  0.924354483144879  0.44152439021522555  1.0000
  O   O5        1.0  0.027340792855459765  0.6825775048806638  0.46467426827410346  1.0000
  O   O6        1.0  0.8959995946977773  0.8999715323117361  0.6746669242729478  1.0000
