data_image0
_chemical_formula_structural       Fe2CCl6
_chemical_formula_sum              "Fe2 C1 Cl6"
_cell_length_a       6.406210553686154
_cell_length_b       6.4062108159889215
_cell_length_c       6.406210446948215
_cell_angle_alpha    60.000003058569575
_cell_angle_beta     60.000002766589404
_cell_angle_gamma    60.000001669073036

_space_group_name_H-M_alt    "P 1"
_space_group_IT_number       1

loop_
  _space_group_symop_operation_xyz
  'x, y, z'

loop_
  _atom_site_type_symbol
  _atom_site_label
  _atom_site_symmetry_multiplicity
  _atom_site_fract_x
  _atom_site_fract_y
  _atom_site_fract_z
  _atom_site_occupancy
  Fe  Fe1       1.0  0.24999953815826892  0.25000027299763733  0.25000025165944273  1.0000
  Fe  Fe2       1.0  0.7499997606776948  0.7500000083860888  0.7499996412232477  1.0000
  C   C1        1.0  0.999999673274761  2.772122363167718e-07  0.9999999310973834  1.0000
  Cl  Cl1       1.0  0.2521272725586955  0.25212704375127826  0.747872870593472  1.0000
  Cl  Cl2       1.0  0.7478729636589181  0.7478728858596752  0.252127263341747  1.0000
  Cl  Cl3       1.0  0.7478730149186892  0.2521269910915421  0.2521271608138264  1.0000
  Cl  Cl4       1.0  0.25212731945397027  0.7478728008691974  0.7478728742340983  1.0000
  Cl  Cl5       1.0  0.2521272070442438  0.7478726398597624  0.2521272457521951  1.0000
  Cl  Cl6       1.0  0.7478732397751302  0.25212705268693353  0.7478727968282624  1.0000
