data_image0
_chemical_formula_structural       Fe2CCl6
_chemical_formula_sum              "Fe2 C1 Cl6"
_cell_length_a       6.406886033480011
_cell_length_b       6.406886114629168
_cell_length_c       6.406886013091296
_cell_angle_alpha    59.999999575539476
_cell_angle_beta     60.00000000087615
_cell_angle_gamma    60.00000040500667

_space_group_name_H-M_alt    "P 1"
_space_group_IT_number       1

loop_
  _space_group_symop_operation_xyz
  'x, y, z'

loop_
  _atom_site_type_symbol
  _atom_site_label
  _atom_site_symmetry_multiplicity
  _atom_site_fract_x
  _atom_site_fract_y
  _atom_site_fract_z
  _atom_site_occupancy
  Fe  Fe1       1.0  0.24999992360801848  0.2499999884169298  0.25000003317204494  1.0000
  Fe  Fe2       1.0  0.7499999873163611  0.7499999537811481  0.749999995443982  1.0000
  C   C1        1.0  0.9999999462032957  8.028749302328933e-08  3.0360119732066194e-07  1.0000
  Cl  Cl1       1.0  0.25201979547698117  0.2520197547692068  0.7479802192669743  1.0000
  Cl  Cl2       1.0  0.7479802392393584  0.7479802486002974  0.25201973403638606  1.0000
  Cl  Cl3       1.0  0.7479803159004673  0.25201970992824985  0.25201970068710516  1.0000
  Cl  Cl4       1.0  0.25201982320451305  0.7479801749216182  0.74798015510677  1.0000
  Cl  Cl5       1.0  0.2520197724585091  0.7479802584358561  0.2520197215235271  1.0000
  Cl  Cl6       1.0  0.7479801902196679  0.2520198366907874  0.74798013919685  1.0000
