data_image0
_chemical_formula_structural       Fe2CS6
_chemical_formula_sum              "Fe2 C1 S6"
_cell_length_a       5.851222078432067
_cell_length_b       5.851222317002598
_cell_length_c       5.8512222316862825
_cell_angle_alpha    59.999999428427465
_cell_angle_beta     59.999997793778626
_cell_angle_gamma    59.99999791528689

_space_group_name_H-M_alt    "P 1"
_space_group_IT_number       1

loop_
  _space_group_symop_operation_xyz
  'x, y, z'

loop_
  _atom_site_type_symbol
  _atom_site_label
  _atom_site_symmetry_multiplicity
  _atom_site_fract_x
  _atom_site_fract_y
  _atom_site_fract_z
  _atom_site_occupancy
  Fe  Fe1       1.0  0.24999972468895276  0.25000011279130774  0.2500001560637393  1.0000
  Fe  Fe2       1.0  0.7499999735544555  0.7499999113726038  0.74999987519545  1.0000
  C   C1        1.0  5.537588528653066e-08  0.9999999937205676  0.9999999959603088  1.0000
  S   S1        1.0  0.2289436660543765  0.22894366042158476  0.7710565510898473  1.0000
  S   S2        1.0  0.7710566882519699  0.7710560413981863  0.228943865331358  1.0000
  S   S3        1.0  0.7710561981958808  0.22894385028947578  0.2289435425475293  1.0000
  S   S4        1.0  0.22894347572316331  0.7710564836596963  0.7710562297661738  1.0000
  S   S5        1.0  0.2289437709833991  0.7710560520180197  0.22894361715279446  1.0000
  S   S6        1.0  0.7710564777902478  0.2289438716749837  0.7710561976219479  1.0000
