data_image0
_chemical_formula_structural       Fe2CuF6
_chemical_formula_sum              "Fe2 Cu1 F6"
_cell_length_a       5.246298335892792
_cell_length_b       5.246298189198856
_cell_length_c       5.246298294763273
_cell_angle_alpha    59.99999967690037
_cell_angle_beta     59.999999711579726
_cell_angle_gamma    60.000000484636786

_space_group_name_H-M_alt    "P 1"
_space_group_IT_number       1

loop_
  _space_group_symop_operation_xyz
  'x, y, z'

loop_
  _atom_site_type_symbol
  _atom_site_label
  _atom_site_symmetry_multiplicity
  _atom_site_fract_x
  _atom_site_fract_y
  _atom_site_fract_z
  _atom_site_occupancy
  Fe  Fe1       1.0  0.2500002144373273  0.249999968691084  0.24999979799297392  1.0000
  Fe  Fe2       1.0  0.7499999598938172  0.7500000414738656  0.7500000968615221  1.0000
  Cu  Cu1       1.0  0.9999999793253036  0.9999999299651969  1.5209667862629705e-07  1.0000
  F   F1        1.0  0.2550455668428811  0.25504551242057366  0.7449545677127843  1.0000
  F   F2        1.0  0.7449544919462253  0.7449545934586058  0.2550453713655223  1.0000
  F   F3        1.0  0.7449543916185983  0.2550454263413699  0.2550456497597406  1.0000
  F   F4        1.0  0.2550455247323882  0.744954492778332  0.7449544672601061  1.0000
  F   F5        1.0  0.2550455539544818  0.7449544198272319  0.255045479839811  1.0000
  F   F6        1.0  0.7449543127503999  0.25504560201018  0.7449544448130223  1.0000
