data_image0
_chemical_formula_structural       Fe2CrF6
_chemical_formula_sum              "Fe2 Cr1 F6"
_cell_length_a       6.705983032577629
_cell_length_b       5.411889848776661
_cell_length_c       5.408255224097276
_cell_angle_alpha    66.66198754661235
_cell_angle_beta     56.6925657765543
_cell_angle_gamma    54.7469007988854

_space_group_name_H-M_alt    "P 1"
_space_group_IT_number       1

loop_
  _space_group_symop_operation_xyz
  'x, y, z'

loop_
  _atom_site_type_symbol
  _atom_site_label
  _atom_site_symmetry_multiplicity
  _atom_site_fract_x
  _atom_site_fract_y
  _atom_site_fract_z
  _atom_site_occupancy
  Fe  Fe1       1.0  0.05588860943150668  0.34664570570673614  0.29099594141451324  1.0000
  Fe  Fe2       1.0  0.5554717398796998  0.6749024261482214  0.11953595257541783  1.0000
  Cr  Cr1       1.0  0.0553617251372184  0.9910351686616209  0.9357717324286602  1.0000
  F   F1        1.0  0.30170120536700334  0.09805013399481338  0.908429486262177  1.0000
  F   F2        1.0  0.8415408718022466  0.7911149249701047  0.04980974008394127  1.0000
  F   F3        1.0  0.8095939422381829  0.21031718024123575  0.2891232198917697  1.0000
  F   F4        1.0  0.2686194327618546  0.8905247475316753  0.5221782623732215  1.0000
  F   F5        1.0  0.2580871845086493  0.6044907647798328  0.133844744927178  1.0000
  F   F6        1.0  0.8540065063534696  0.3920625722651196  0.7511177098671565  1.0000
