data_image0
_chemical_formula_structural       Fe2CoI6
_chemical_formula_sum              "Fe2 Co1 I6"
_cell_length_a       7.28126804841354
_cell_length_b       7.2812679031523695
_cell_length_c       7.28126788194484
_cell_angle_alpha    59.9999994231968
_cell_angle_beta     59.999999066185794
_cell_angle_gamma    59.999998686165654

_space_group_name_H-M_alt    "P 1"
_space_group_IT_number       1

loop_
  _space_group_symop_operation_xyz
  'x, y, z'

loop_
  _atom_site_type_symbol
  _atom_site_label
  _atom_site_symmetry_multiplicity
  _atom_site_fract_x
  _atom_site_fract_y
  _atom_site_fract_z
  _atom_site_occupancy
  Fe  Fe1       1.0  0.24999993115649674  0.2500000227039454  0.2499999511751839  1.0000
  Fe  Fe2       1.0  0.7500000448530302  0.7499999419581651  0.7499999873049822  1.0000
  Co  Co1       1.0  0.99999999439317  1.6820489253098234e-08  4.006880657993836e-09  1.0000
  I   I1        1.0  0.2505145227735384  0.2505146298081018  0.7494854148476535  1.0000
  I   I2        1.0  0.7494854561025891  0.7494853785872807  0.2505145978430659  1.0000
  I   I3        1.0  0.7494854697905248  0.2505145631472286  0.25051458615499245  1.0000
  I   I4        1.0  0.2505145816829621  0.7494854082430773  0.7494854444476519  1.0000
  I   I5        1.0  0.25051456363814223  0.7494854593255331  0.2505145936035374  1.0000
  I   I6        1.0  0.7494854266907228  0.25051458607492566  0.7494854209526313  1.0000
