data_image0
_chemical_formula_structural       Fe2GeI6
_chemical_formula_sum              "Fe2 Ge1 I6"
_cell_length_a       7.515424292994812
_cell_length_b       7.515424392099723
_cell_length_c       7.5154245810157185
_cell_angle_alpha    59.99999904496549
_cell_angle_beta     59.999999660763926
_cell_angle_gamma    59.99999982410217

_space_group_name_H-M_alt    "P 1"
_space_group_IT_number       1

loop_
  _space_group_symop_operation_xyz
  'x, y, z'

loop_
  _atom_site_type_symbol
  _atom_site_label
  _atom_site_symmetry_multiplicity
  _atom_site_fract_x
  _atom_site_fract_y
  _atom_site_fract_z
  _atom_site_occupancy
  Fe  Fe1       1.0  0.2500001036971954  0.25000002116822284  0.24999992172291363  1.0000
  Fe  Fe2       1.0  0.7499999668063818  0.7499999624668835  0.7500000783108164  1.0000
  Ge  Ge1       1.0  2.8649163332406056e-08  1.6296418407037776e-09  0.999999960909855  1.0000
  I   I1        1.0  0.2603565979107941  0.26035659203771877  0.739643394499185  1.0000
  I   I2        1.0  0.7396434050825829  0.7396433867084625  0.26035659516321863  1.0000
  I   I3        1.0  0.739643356732691  0.26035660538248157  0.2603566129817319  1.0000
  I   I4        1.0  0.2603566099133276  0.7396433994379664  0.7396434137515409  1.0000
  I   I5        1.0  0.26035660681761047  0.7396433952720776  0.26035657986967475  1.0000
  I   I6        1.0  0.739643326553931  0.2603566356226373  0.7396434411495253  1.0000
