data_image0
_chemical_formula_structural       Fe2GeI6
_chemical_formula_sum              "Fe2 Ge1 I6"
_cell_length_a       7.518157996245127
_cell_length_b       7.518157834818801
_cell_length_c       7.5181579640841605
_cell_angle_alpha    60.000000921347706
_cell_angle_beta     60.00000032350675
_cell_angle_gamma    59.99999976427526

_space_group_name_H-M_alt    "P 1"
_space_group_IT_number       1

loop_
  _space_group_symop_operation_xyz
  'x, y, z'

loop_
  _atom_site_type_symbol
  _atom_site_label
  _atom_site_symmetry_multiplicity
  _atom_site_fract_x
  _atom_site_fract_y
  _atom_site_fract_z
  _atom_site_occupancy
  Fe  Fe1       1.0  0.250000054903668  0.249999941699146  0.2499999846345225  1.0000
  Fe  Fe2       1.0  0.7499999720228552  0.7500001036648445  0.7499999521974461  1.0000
  Ge  Ge1       1.0  1.653802216751694e-08  0.9999999918547541  0.9999999878229335  1.0000
  I   I1        1.0  0.26015794061886566  0.26015791669243604  0.7398420661080424  1.0000
  I   I2        1.0  0.7398420499283035  0.7398420765419823  0.2601579588721192  1.0000
  I   I3        1.0  0.7398420969763069  0.2601578878502973  0.2601579301760955  1.0000
  I   I4        1.0  0.2601578846350695  0.7398420907226788  0.739842099952118  1.0000
  I   I5        1.0  0.2601579161643241  0.7398420764334157  0.2601579336929425  1.0000
  I   I6        1.0  0.7398420568519571  0.2601579233171993  0.7398420874837734  1.0000
