data_image0
_chemical_formula_structural       Fe2GeSe6
_chemical_formula_sum              "Fe2 Ge1 Se6"
_cell_length_a       6.518215554538009
_cell_length_b       6.518215524046272
_cell_length_c       6.518215450664219
_cell_angle_alpha    60.00000084322252
_cell_angle_beta     60.000002067107964
_cell_angle_gamma    60.0000000716137

_space_group_name_H-M_alt    "P 1"
_space_group_IT_number       1

loop_
  _space_group_symop_operation_xyz
  'x, y, z'

loop_
  _atom_site_type_symbol
  _atom_site_label
  _atom_site_symmetry_multiplicity
  _atom_site_fract_x
  _atom_site_fract_y
  _atom_site_fract_z
  _atom_site_occupancy
  Fe  Fe1       1.0  0.24999993287305836  0.24999995335535016  0.2500001089600389  1.0000
  Fe  Fe2       1.0  0.7499998488627061  0.7500000122615916  0.7500001612257676  1.0000
  Ge  Ge1       1.0  0.9999999233588789  8.64320364511429e-08  8.715427600200328e-08  1.0000
  Se  Se1       1.0  0.292456530305381  0.2924564981339412  0.707543456371136  1.0000
  Se  Se2       1.0  0.7075434670158285  0.7075434956673587  0.2924565707309548  1.0000
  Se  Se3       1.0  0.7075435895998399  0.2924566212201033  0.2924563697639077  1.0000
  Se  Se4       1.0  0.2924565645250049  0.7075434176761709  0.7075434213826037  1.0000
  Se  Se5       1.0  0.29245662436697684  0.7075434686080329  0.2924564299349454  1.0000
  Se  Se6       1.0  0.7075435142995367  0.2924564519139314  0.7075433882396678  1.0000
