data_image0
_chemical_formula_structural       Fe2GeS6
_chemical_formula_sum              "Fe2 Ge1 S6"
_cell_length_a       6.30388212020998
_cell_length_b       6.303882258603459
_cell_length_c       6.303882216041396
_cell_angle_alpha    60.00000100887637
_cell_angle_beta     60.0000005686842
_cell_angle_gamma    59.999998982248364

_space_group_name_H-M_alt    "P 1"
_space_group_IT_number       1

loop_
  _space_group_symop_operation_xyz
  'x, y, z'

loop_
  _atom_site_type_symbol
  _atom_site_label
  _atom_site_symmetry_multiplicity
  _atom_site_fract_x
  _atom_site_fract_y
  _atom_site_fract_z
  _atom_site_occupancy
  Fe  Fe1       1.0  0.250000005585041  0.2500000229710953  0.25000003078908134  1.0000
  Fe  Fe2       1.0  0.7500000210504034  0.7499999076573807  0.7500000724954642  1.0000
  Ge  Ge1       1.0  0.9999999740224503  1.7485580294870423e-08  0.9999999376203743  1.0000
  S   S1        1.0  0.2589632735141198  0.2589633841505381  0.7410364692080492  1.0000
  S   S2        1.0  0.7410366600331935  0.741036721333738  0.25896312205441774  1.0000
  S   S3        1.0  0.7410367678781183  0.25896328473125463  0.25896333683480194  1.0000
  S   S4        1.0  0.25896332897252494  0.7410367100110138  0.7410368277774974  1.0000
  S   S5        1.0  0.25896330473181295  0.741036690184575  0.2589633218084604  1.0000
  S   S6        1.0  0.7410366567010412  0.2589632657008517  0.7410368760061351  1.0000
