data_image0
_chemical_formula_structural       Fe2GeBr6
_chemical_formula_sum              "Fe2 Ge1 Br6"
_cell_length_a       6.9488542302885525
_cell_length_b       6.948854211493333
_cell_length_c       6.948854171742066
_cell_angle_alpha    60.00000031537891
_cell_angle_beta     60.00000043169476
_cell_angle_gamma    59.999999835470106

_space_group_name_H-M_alt    "P 1"
_space_group_IT_number       1

loop_
  _space_group_symop_operation_xyz
  'x, y, z'

loop_
  _atom_site_type_symbol
  _atom_site_label
  _atom_site_symmetry_multiplicity
  _atom_site_fract_x
  _atom_site_fract_y
  _atom_site_fract_z
  _atom_site_occupancy
  Fe  Fe1       1.0  0.2500000611645464  0.2499999662634112  0.24999998452942696  1.0000
  Fe  Fe2       1.0  0.7499999244649541  0.7500000627039813  0.7499999752421983  1.0000
  Ge  Ge1       1.0  0.9999999971459829  3.348775472701869e-08  9.147596294795327e-09  1.0000
  Br  Br1       1.0  0.2549848615579885  0.2549848339825852  0.7450151424433116  1.0000
  Br  Br2       1.0  0.7450151204975695  0.7450151209592442  0.25498488922704854  1.0000
  Br  Br3       1.0  0.7450151387069122  0.2549848529828877  0.254984867560224  1.0000
  Br  Br4       1.0  0.25498489113513984  0.7450151231091025  0.7450151512281015  1.0000
  Br  Br5       1.0  0.2549848633266491  0.7450151544168842  0.2549848285304002  1.0000
  Br  Br6       1.0  0.7450151403973958  0.2549848551628608  0.7450151505958968  1.0000
