data_image0
_chemical_formula_structural       Fe2GeCl6
_chemical_formula_sum              "Fe2 Ge1 Cl6"
_cell_length_a       6.566978457789247
_cell_length_b       6.566978410366106
_cell_length_c       6.566978434590203
_cell_angle_alpha    59.999999428464434
_cell_angle_beta     59.99999987086363
_cell_angle_gamma    60.00000008306972

_space_group_name_H-M_alt    "P 1"
_space_group_IT_number       1

loop_
  _space_group_symop_operation_xyz
  'x, y, z'

loop_
  _atom_site_type_symbol
  _atom_site_label
  _atom_site_symmetry_multiplicity
  _atom_site_fract_x
  _atom_site_fract_y
  _atom_site_fract_z
  _atom_site_occupancy
  Fe  Fe1       1.0  0.24999988613090432  0.25000015832023165  0.24999990073373282  1.0000
  Fe  Fe2       1.0  0.7499999499823664  0.750000090769628  0.7499999373254285  1.0000
  Ge  Ge1       1.0  1.1153430636367524e-08  2.9840083218276914e-08  0.9999999292518217  1.0000
  Cl  Cl1       1.0  0.2514741995543387  0.2514741295227456  0.7485258684643691  1.0000
  Cl  Cl2       1.0  0.7485258351330906  0.7485257875961916  0.25147422968500843  1.0000
  Cl  Cl3       1.0  0.7485258445538626  0.25147411291568433  0.2514742242651275  1.0000
  Cl  Cl4       1.0  0.25147419521357517  0.7485257836881959  0.748525875510693  1.0000
  Cl  Cl5       1.0  0.25147422534556263  0.7485257708389809  0.25147418282434586  1.0000
  Cl  Cl6       1.0  0.7485258422353905  0.2514741425499461  0.7485258596284755  1.0000
