data_image0
_chemical_formula_structural       Fe2GeTe6
_chemical_formula_sum              "Fe2 Ge1 Te6"
_cell_length_a       7.1579282100330115
_cell_length_b       7.157928291784227
_cell_length_c       7.1579282833228515
_cell_angle_alpha    60.0000005257704
_cell_angle_beta     60.0000000195912
_cell_angle_gamma    60.00000082889425

_space_group_name_H-M_alt    "P 1"
_space_group_IT_number       1

loop_
  _space_group_symop_operation_xyz
  'x, y, z'

loop_
  _atom_site_type_symbol
  _atom_site_label
  _atom_site_symmetry_multiplicity
  _atom_site_fract_x
  _atom_site_fract_y
  _atom_site_fract_z
  _atom_site_occupancy
  Fe  Fe1       1.0  0.25000007992986634  0.25000001049600246  0.24999981924027942  1.0000
  Fe  Fe2       1.0  0.7499999802805981  0.7499999921342574  0.7499998167100542  1.0000
  Ge  Ge1       1.0  0.9999999856771178  0.9999999897338043  0.999999992735807  1.0000
  Te  Te1       1.0  0.2793168484355272  0.27931693070387265  0.7206832374844432  1.0000
  Te  Te2       1.0  0.72068313592204  0.7206831301014978  0.27931702899304683  1.0000
  Te  Te3       1.0  0.7206830506393425  0.2793168118833586  0.27931699125081716  1.0000
  Te  Te4       1.0  0.27931687053042137  0.7206830658415232  0.720683165053088  1.0000
  Te  Te5       1.0  0.2793169272798296  0.7206831666660382  0.27931683545292296  1.0000
  Te  Te6       1.0  0.7206831164717205  0.2793169095386247  0.7206831142174744  1.0000
