data_image0
_chemical_formula_structural       Fe2GeF6
_chemical_formula_sum              "Fe2 Ge1 F6"
_cell_length_a       5.639352688733613
_cell_length_b       5.63935238528044
_cell_length_c       5.639352429328589
_cell_angle_alpha    59.999999945810764
_cell_angle_beta     60.00000059849489
_cell_angle_gamma    59.99999997885017

_space_group_name_H-M_alt    "P 1"
_space_group_IT_number       1

loop_
  _space_group_symop_operation_xyz
  'x, y, z'

loop_
  _atom_site_type_symbol
  _atom_site_label
  _atom_site_symmetry_multiplicity
  _atom_site_fract_x
  _atom_site_fract_y
  _atom_site_fract_z
  _atom_site_occupancy
  Fe  Fe1       1.0  0.24999987191238843  0.25000005305612427  0.2500001098069186  1.0000
  Fe  Fe2       1.0  0.7499999312733792  0.7500000049717918  0.7499999437513788  1.0000
  Ge  Ge1       1.0  8.541614026773504e-09  1.7374262726296426e-08  0.9999999657630226  1.0000
  F   F1        1.0  0.2298519798535665  0.22985198109255645  0.770147995344813  1.0000
  F   F2        1.0  0.7701480671393046  0.7701480334997055  0.22985206619620574  1.0000
  F   F3        1.0  0.7701480653020067  0.22985194748125273  0.2298519532578983  1.0000
  F   F4        1.0  0.22985190603343478  0.7701480975159681  0.770148084804772  1.0000
  F   F5        1.0  0.2298519967614158  0.7701479141226054  0.22985187227024295  1.0000
  F   F6        1.0  0.770148126179922  0.22985198319338251  0.7701480308361011  1.0000
