data_image0
_chemical_formula_structural       Fe2GeBr6
_chemical_formula_sum              "Fe2 Ge1 Br6"
_cell_length_a       6.950557547097162
_cell_length_b       6.950557468566805
_cell_length_c       6.950557481449805
_cell_angle_alpha    59.99999928812869
_cell_angle_beta     60.000000471743775
_cell_angle_gamma    59.999998528747575

_space_group_name_H-M_alt    "P 1"
_space_group_IT_number       1

loop_
  _space_group_symop_operation_xyz
  'x, y, z'

loop_
  _atom_site_type_symbol
  _atom_site_label
  _atom_site_symmetry_multiplicity
  _atom_site_fract_x
  _atom_site_fract_y
  _atom_site_fract_z
  _atom_site_occupancy
  Fe  Fe1       1.0  0.25000011869303557  0.2500000050583471  0.24999996730526622  1.0000
  Fe  Fe2       1.0  0.7499999518604962  0.7500000715616564  0.7499998700929029  1.0000
  Ge  Ge1       1.0  0.9999999802658741  0.9999999894275113  0.9999999806237029  1.0000
  Br  Br1       1.0  0.25484210608047436  0.25484213760254176  0.7451578813199751  1.0000
  Br  Br2       1.0  0.7451578739419927  0.745157836816733  0.25484222940831364  1.0000
  Br  Br3       1.0  0.7451578468549636  0.2548421163397023  0.25484213020872787  1.0000
  Br  Br4       1.0  0.2548420882949408  0.7451578880349595  0.7451579074090715  1.0000
  Br  Br5       1.0  0.25484214570881103  0.7451579078048762  0.254842107945413  1.0000
  Br  Br6       1.0  0.7451578815183694  0.25484205956607214  0.7451579381039432  1.0000
