data_image0
_chemical_formula_structural       Fe2HgBr6
_chemical_formula_sum              "Fe2 Hg1 Br6"
_cell_length_a       6.934033448798444
_cell_length_b       6.934033322967216
_cell_length_c       6.934033265482002
_cell_angle_alpha    60.00000074958518
_cell_angle_beta     60.00000040567301
_cell_angle_gamma    60.000000415995515

_space_group_name_H-M_alt    "P 1"
_space_group_IT_number       1

loop_
  _space_group_symop_operation_xyz
  'x, y, z'

loop_
  _atom_site_type_symbol
  _atom_site_label
  _atom_site_symmetry_multiplicity
  _atom_site_fract_x
  _atom_site_fract_y
  _atom_site_fract_z
  _atom_site_occupancy
  Fe  Fe1       1.0  0.24999994570532877  0.24999995938327957  0.25000001822940315  1.0000
  Fe  Fe2       1.0  0.7500000397212814  0.749999994724361  0.7500000450831592  1.0000
  Hg  Hg1       1.0  0.9999999759791788  3.7091892704165466e-08  0.9999999790428434  1.0000
  Br  Br1       1.0  0.2728722777024859  0.2728722760681099  0.727127723779637  1.0000
  Br  Br2       1.0  0.7271277235686553  0.727127720430265  0.27287226426610517  1.0000
  Br  Br3       1.0  0.7271276917530901  0.27287232707356585  0.2728722546425021  1.0000
  Br  Br4       1.0  0.2728722846054239  0.7271277241795078  0.7271276853124764  1.0000
  Br  Br5       1.0  0.27287231754218416  0.7271276767698726  0.2728723090796727  1.0000
  Br  Br6       1.0  0.7271277359582727  0.2728722879354519  0.7271277221079345  1.0000
