data_image0
_chemical_formula_structural       Fe2HgI6
_chemical_formula_sum              "Fe2 Hg1 I6"
_cell_length_a       7.637793415708697
_cell_length_b       7.637793240386964
_cell_length_c       7.637793193847279
_cell_angle_alpha    60.00000182653409
_cell_angle_beta     59.999999822557065
_cell_angle_gamma    60.00000052481487

_space_group_name_H-M_alt    "P 1"
_space_group_IT_number       1

loop_
  _space_group_symop_operation_xyz
  'x, y, z'

loop_
  _atom_site_type_symbol
  _atom_site_label
  _atom_site_symmetry_multiplicity
  _atom_site_fract_x
  _atom_site_fract_y
  _atom_site_fract_z
  _atom_site_occupancy
  Fe  Fe1       1.0  0.24999996681922967  0.25000003788941944  0.24999998587509803  1.0000
  Fe  Fe2       1.0  0.7499999605350796  0.7500000286810456  0.75000003423486  1.0000
  Hg  Hg1       1.0  0.999999989325519  4.810596967634506e-09  3.1338475933271734e-10  1.0000
  I   I1        1.0  0.2715516302962145  0.27155158969341836  0.7284483905001553  1.0000
  I   I2        1.0  0.7284483939537926  0.7284483902862999  0.2715516192202104  1.0000
  I   I3        1.0  0.7284484233651155  0.2715516343196569  0.2715515539306622  1.0000
  I   I4        1.0  0.27155157669569574  0.7284483456600606  0.7284484377708919  1.0000
  I   I5        1.0  0.2715516480842216  0.7284483513135357  0.2715516043993628  1.0000
  I   I6        1.0  0.7284484156566458  0.27155161904498787  0.7284483563449236  1.0000
