data_image0
_chemical_formula_structural       Fe2HgF6
_chemical_formula_sum              "Fe2 Hg1 F6"
_cell_length_a       5.616812174444642
_cell_length_b       5.616812476721924
_cell_length_c       5.616812533640535
_cell_angle_alpha    60.00000085591463
_cell_angle_beta     60.000001350550086
_cell_angle_gamma    59.9999999767413

_space_group_name_H-M_alt    "P 1"
_space_group_IT_number       1

loop_
  _space_group_symop_operation_xyz
  'x, y, z'

loop_
  _atom_site_type_symbol
  _atom_site_label
  _atom_site_symmetry_multiplicity
  _atom_site_fract_x
  _atom_site_fract_y
  _atom_site_fract_z
  _atom_site_occupancy
  Fe  Fe1       1.0  0.24999993942000617  0.24999970884502903  0.25000026534927383  1.0000
  Fe  Fe2       1.0  0.7500001239136148  0.7500000597882436  0.7499997671095472  1.0000
  Hg  Hg1       1.0  2.6953328631349406e-08  2.39854779922279e-08  4.796873897962213e-09  1.0000
  F   F1        1.0  0.2662821310418027  0.2662820763705585  0.733717885433751  1.0000
  F   F2        1.0  0.7337178118870017  0.7337180411424029  0.2662821841190152  1.0000
  F   F3        1.0  0.7337179196378506  0.26628203526780553  0.2662821186001503  1.0000
  F   F4        1.0  0.2662821027828492  0.7337180102887191  0.7337177869516608  1.0000
  F   F5        1.0  0.26628190804062707  0.7337179904745508  0.26628220285236315  1.0000
  F   F6        1.0  0.7337180288668937  0.2662820834284499  0.7337177686705508  1.0000
