data_image0
_chemical_formula_structural       Fe2HgCl6
_chemical_formula_sum              "Fe2 Hg1 Cl6"
_cell_length_a       6.543072778101316
_cell_length_b       6.543072825691458
_cell_length_c       6.543072810353902
_cell_angle_alpha    60.000000549292004
_cell_angle_beta     60.0000005163495
_cell_angle_gamma    60.00000017349392

_space_group_name_H-M_alt    "P 1"
_space_group_IT_number       1

loop_
  _space_group_symop_operation_xyz
  'x, y, z'

loop_
  _atom_site_type_symbol
  _atom_site_label
  _atom_site_symmetry_multiplicity
  _atom_site_fract_x
  _atom_site_fract_y
  _atom_site_fract_z
  _atom_site_occupancy
  Fe  Fe1       1.0  0.2500000154408216  0.25000000148372437  0.24999997916648117  1.0000
  Fe  Fe2       1.0  0.7500000035062474  0.7499999052447619  0.7500002301191728  1.0000
  Hg  Hg1       1.0  1.8592772651028673e-08  0.9999999812818089  0.9999999557410261  1.0000
  Cl  Cl1       1.0  0.26744007981911516  0.26744005016237465  0.7325599357535298  1.0000
  Cl  Cl2       1.0  0.7325599446699412  0.7325599670034373  0.26743995725403863  1.0000
  Cl  Cl3       1.0  0.7325599178785086  0.2674401190234355  0.26743998663410573  1.0000
  Cl  Cl4       1.0  0.267439995179329  0.7325599730151408  0.7325599873143797  1.0000
  Cl  Cl5       1.0  0.2674400941587411  0.7325599735936646  0.2674399842339306  1.0000
  Cl  Cl6       1.0  0.732559931578195  0.26744003982850933  0.7325599711548729  1.0000
