data_image0
_chemical_formula_structural       Fe2InBr6
_chemical_formula_sum              "Fe2 In1 Br6"
_cell_length_a       6.9812825027224275
_cell_length_b       6.981282473501767
_cell_length_c       6.98128248591322
_cell_angle_alpha    60.00000006938069
_cell_angle_beta     59.99999937188644
_cell_angle_gamma    60.000000350071446

_space_group_name_H-M_alt    "P 1"
_space_group_IT_number       1

loop_
  _space_group_symop_operation_xyz
  'x, y, z'

loop_
  _atom_site_type_symbol
  _atom_site_label
  _atom_site_symmetry_multiplicity
  _atom_site_fract_x
  _atom_site_fract_y
  _atom_site_fract_z
  _atom_site_occupancy
  Fe  Fe1       1.0  0.24999999387055438  0.2499999154423258  0.25000002663620935  1.0000
  Fe  Fe2       1.0  0.7500000230731757  0.7500000585970902  0.7499999059076186  1.0000
  In  In1       1.0  2.9671576238977018e-08  5.26297950331788e-09  0.9999999610466984  1.0000
  Br  Br1       1.0  0.26560205966429046  0.2656019972990437  0.7343979752375634  1.0000
  Br  Br2       1.0  0.7343979623417549  0.7343979714773932  0.26560203762108425  1.0000
  Br  Br3       1.0  0.7343979473407575  0.2656020287553856  0.2656020793596305  1.0000
  Br  Br4       1.0  0.265601981706152  0.7343980154570896  0.7343980196102516  1.0000
  Br  Br5       1.0  0.26560205382655244  0.7343979679095759  0.26560203228572193  1.0000
  Br  Br6       1.0  0.7343979524908867  0.2656020429706963  0.7343979630681069  1.0000
