data_image0
_chemical_formula_structural       Fe2InI6
_chemical_formula_sum              "Fe2 In1 I6"
_cell_length_a       7.680637750089339
_cell_length_b       7.680637671918748
_cell_length_c       7.680637644194414
_cell_angle_alpha    60.000000266775864
_cell_angle_beta     60.00000052717238
_cell_angle_gamma    59.99999902884107

_space_group_name_H-M_alt    "P 1"
_space_group_IT_number       1

loop_
  _space_group_symop_operation_xyz
  'x, y, z'

loop_
  _atom_site_type_symbol
  _atom_site_label
  _atom_site_symmetry_multiplicity
  _atom_site_fract_x
  _atom_site_fract_y
  _atom_site_fract_z
  _atom_site_occupancy
  Fe  Fe1       1.0  0.24999998304620444  0.25000004958206407  0.2499999252366894  1.0000
  Fe  Fe2       1.0  0.7500000684121494  0.7499998856392553  0.7500000325072517  1.0000
  In  In1       1.0  3.714445392148274e-08  0.9999999968108246  0.9999999752105093  1.0000
  I   I1        1.0  0.2636873476030369  0.26368749162826755  0.73631261152101  1.0000
  I   I2        1.0  0.7363126050248706  0.7363125281061903  0.2636874653514553  1.0000
  I   I3        1.0  0.7363125841017744  0.26368739013494186  0.2636874066916969  1.0000
  I   I4        1.0  0.26368743912563125  0.7363125801673026  0.7363125736667606  1.0000
  I   I5        1.0  0.26368738034435696  0.73631263372067  0.2636874065796195  1.0000
  I   I6        1.0  0.7363125570359493  0.26368744979728737  0.7363125952478626  1.0000
