data_image0
_chemical_formula_structural       Fe2InF6
_chemical_formula_sum              "Fe2 In1 F6"
_cell_length_a       5.698310910381156
_cell_length_b       5.698310866165485
_cell_length_c       5.6983111496148675
_cell_angle_alpha    59.99999959219182
_cell_angle_beta     60.00000053573414
_cell_angle_gamma    60.00000085423809

_space_group_name_H-M_alt    "P 1"
_space_group_IT_number       1

loop_
  _space_group_symop_operation_xyz
  'x, y, z'

loop_
  _atom_site_type_symbol
  _atom_site_label
  _atom_site_symmetry_multiplicity
  _atom_site_fract_x
  _atom_site_fract_y
  _atom_site_fract_z
  _atom_site_occupancy
  Fe  Fe1       1.0  0.24999971227526085  0.25000004467028775  0.25000022668777194  1.0000
  Fe  Fe2       1.0  0.7500001227019988  0.7499997600305592  0.7499998844966177  1.0000
  In  In1       1.0  0.9999999748228614  4.513555479902984e-08  5.814945273852557e-09  1.0000
  F   F1        1.0  0.2555236375084494  0.25552385985044734  0.744476283818307  1.0000
  F   F2        1.0  0.7444763943727849  0.7444761748268024  0.25552375256346704  1.0000
  F   F3        1.0  0.7444763504912845  0.2555236944841903  0.2555237462717932  1.0000
  F   F4        1.0  0.25552371475339275  0.7444763616861808  0.7444761942403683  1.0000
  F   F5        1.0  0.2555237448777388  0.7444761455998458  0.2555238525709102  1.0000
  F   F6        1.0  0.7444763382356925  0.25552392991433465  0.744476048276099  1.0000
