data_image0
_chemical_formula_structural       Fe2InCl6
_chemical_formula_sum              "Fe2 In1 Cl6"
_cell_length_a       6.594215252651304
_cell_length_b       6.594215476581354
_cell_length_c       6.594215312617252
_cell_angle_alpha    59.99999959577089
_cell_angle_beta     59.99999905548276
_cell_angle_gamma    60.00000094882696

_space_group_name_H-M_alt    "P 1"
_space_group_IT_number       1

loop_
  _space_group_symop_operation_xyz
  'x, y, z'

loop_
  _atom_site_type_symbol
  _atom_site_label
  _atom_site_symmetry_multiplicity
  _atom_site_fract_x
  _atom_site_fract_y
  _atom_site_fract_z
  _atom_site_occupancy
  Fe  Fe1       1.0  0.25000019104801496  0.24999991789364032  0.24999995317034465  1.0000
  Fe  Fe2       1.0  0.7499999077634432  0.7500000582784199  0.7500000717486794  1.0000
  In  In1       1.0  0.9999999610695575  0.9999999907134903  2.865791836472108e-08  1.0000
  Cl  Cl1       1.0  0.26254004887241184  0.2625400819632894  0.7374599532212107  1.0000
  Cl  Cl2       1.0  0.7374599417240076  0.737459998217675  0.2625400010098086  1.0000
  Cl  Cl3       1.0  0.7374599149054019  0.2625400478473952  0.2625400725813485  1.0000
  Cl  Cl4       1.0  0.2625400576340022  0.7374599078943443  0.7374599468318696  1.0000
  Cl  Cl5       1.0  0.2625400968907045  0.7374599412032823  0.2625400252356566  1.0000
  Cl  Cl6       1.0  0.7374598842796602  0.26254005168449485  0.7374599500583326  1.0000
