data_image0
_chemical_formula_structural       Fe2MnCl6
_chemical_formula_sum              "Fe2 Mn1 Cl6"
_cell_length_a       6.442967008057096
_cell_length_b       6.442966778286822
_cell_length_c       6.44296684597367
_cell_angle_alpha    59.99999894839086
_cell_angle_beta     59.99999783919903
_cell_angle_gamma    59.99999778887104

_space_group_name_H-M_alt    "P 1"
_space_group_IT_number       1

loop_
  _space_group_symop_operation_xyz
  'x, y, z'

loop_
  _atom_site_type_symbol
  _atom_site_label
  _atom_site_symmetry_multiplicity
  _atom_site_fract_x
  _atom_site_fract_y
  _atom_site_fract_z
  _atom_site_occupancy
  Fe  Fe1       1.0  0.24999987893266856  0.25000014694562656  0.24999986941445496  1.0000
  Fe  Fe2       1.0  0.7500006068127612  0.7500000416474369  0.749999597548849  1.0000
  Mn  Mn1       1.0  0.9999999562451494  7.603608595863325e-09  0.999999997898582  1.0000
  Cl  Cl1       1.0  0.2515402191476884  0.25154033169187157  0.7484597662914453  1.0000
  Cl  Cl2       1.0  0.7484596956167845  0.7484596934236191  0.25154029916105786  1.0000
  Cl  Cl3       1.0  0.7484597303932632  0.25154023928117014  0.2515404045603408  1.0000
  Cl  Cl4       1.0  0.2515401265895504  0.7484596204558406  0.7484598066179943  1.0000
  Cl  Cl5       1.0  0.25154008751079904  0.7484596321084169  0.25154056301707617  1.0000
  Cl  Cl6       1.0  0.7484597178961243  0.25154026944844005  0.7484596980496019  1.0000
