data_image0
_chemical_formula_structural       Fe2MnS6
_chemical_formula_sum              "Fe2 Mn1 S6"
_cell_length_a       6.0767461821848086
_cell_length_b       6.076746123299608
_cell_length_c       6.076746293299378
_cell_angle_alpha    59.9999991840635
_cell_angle_beta     59.99999719337608
_cell_angle_gamma    59.99999640393633

_space_group_name_H-M_alt    "P 1"
_space_group_IT_number       1

loop_
  _space_group_symop_operation_xyz
  'x, y, z'

loop_
  _atom_site_type_symbol
  _atom_site_label
  _atom_site_symmetry_multiplicity
  _atom_site_fract_x
  _atom_site_fract_y
  _atom_site_fract_z
  _atom_site_occupancy
  Fe  Fe1       1.0  0.25000007308675154  0.24999980653604612  0.25000012261155086  1.0000
  Fe  Fe2       1.0  0.7500002581399458  0.7499998388241652  0.7500000877726511  1.0000
  Mn  Mn1       1.0  0.9999999760647684  2.620100227441541e-08  0.9999999791197052  1.0000
  S   S1        1.0  0.2572531716015978  0.2572533327139876  0.7427468074105672  1.0000
  S   S2        1.0  0.7427466741660999  0.742746725815879  0.2572532169599537  1.0000
  S   S3        1.0  0.7427467092250913  0.25725320545301017  0.2572531883557608  1.0000
  S   S4        1.0  0.25725322298991676  0.7427469699736301  0.742746638896902  1.0000
  S   S5        1.0  0.2572531869605986  0.7427468766515049  0.25725325566397805  1.0000
  S   S6        1.0  0.7427467597084387  0.2572532383112858  0.7427467015587317  1.0000
