data_image0
_chemical_formula_structural       Fe2MnBr6
_chemical_formula_sum              "Fe2 Mn1 Br6"
_cell_length_a       6.909059853632242
_cell_length_b       6.90905956571377
_cell_length_c       6.909059849805711
_cell_angle_alpha    59.99999737376447
_cell_angle_beta     59.999996980309014
_cell_angle_gamma    59.99999926101202

_space_group_name_H-M_alt    "P 1"
_space_group_IT_number       1

loop_
  _space_group_symop_operation_xyz
  'x, y, z'

loop_
  _atom_site_type_symbol
  _atom_site_label
  _atom_site_symmetry_multiplicity
  _atom_site_fract_x
  _atom_site_fract_y
  _atom_site_fract_z
  _atom_site_occupancy
  Fe  Fe1       1.0  0.25000002548467753  0.2500000401490772  0.2500002854482675  1.0000
  Fe  Fe2       1.0  0.7499998968389212  0.7499997818681896  0.7500001630691844  1.0000
  Mn  Mn1       1.0  0.9999999874059798  1.772665128968854e-08  0.9999999337491877  1.0000
  Br  Br1       1.0  0.24360697228843764  0.24360710435680885  0.7563928741758661  1.0000
  Br  Br2       1.0  0.7563930189255955  0.756392932152942  0.2436069781743955  1.0000
  Br  Br3       1.0  0.7563929252333987  0.24360705509239403  0.24360701507292704  1.0000
  Br  Br4       1.0  0.2436070864907681  0.7563930452333019  0.7563928645882906  1.0000
  Br  Br5       1.0  0.24360717413946426  0.7563928995749416  0.24360697958781355  1.0000
  Br  Br6       1.0  0.7563929186348021  0.24360712807148555  0.7563929118091117  1.0000
