data_image0
_chemical_formula_structural       Fe2MgCl6
_chemical_formula_sum              "Fe2 Mg1 Cl6"
_cell_length_a       6.432889087027444
_cell_length_b       6.432888892094755
_cell_length_c       6.432888954118117
_cell_angle_alpha    60.000000500906495
_cell_angle_beta     60.000000706582014
_cell_angle_gamma    60.000001205105356

_space_group_name_H-M_alt    "P 1"
_space_group_IT_number       1

loop_
  _space_group_symop_operation_xyz
  'x, y, z'

loop_
  _atom_site_type_symbol
  _atom_site_label
  _atom_site_symmetry_multiplicity
  _atom_site_fract_x
  _atom_site_fract_y
  _atom_site_fract_z
  _atom_site_occupancy
  Fe  Fe1       1.0  0.25000001235933555  0.24999991616698355  0.24999998804233503  1.0000
  Fe  Fe2       1.0  0.7499999955534603  0.7499999807743131  0.7499999169424556  1.0000
  Mg  Mg1       1.0  0.9999999797106289  2.8558199880204406e-08  0.9999999818749821  1.0000
  Cl  Cl1       1.0  0.2589487451504658  0.25894871484213977  0.7410512445865365  1.0000
  Cl  Cl2       1.0  0.7410511891830024  0.7410513382173184  0.25894872949915626  1.0000
  Cl  Cl3       1.0  0.7410512959972807  0.2589487618211965  0.25894879268186144  1.0000
  Cl  Cl4       1.0  0.258948801301259  0.7410512169869444  0.7410512598533637  1.0000
  Cl  Cl5       1.0  0.2589487538769062  0.7410512296833296  0.2589488482589487  1.0000
  Cl  Cl6       1.0  0.741051226818465  0.2589488081450903  0.7410512423947909  1.0000
