data_image0
_chemical_formula_structural       Fe2MnI6
_chemical_formula_sum              "Fe2 Mn1 I6"
_cell_length_a       7.379768071970766
_cell_length_b       7.379767945105029
_cell_length_c       7.379767969088773
_cell_angle_alpha    60.000000335118145
_cell_angle_beta     59.99999841080543
_cell_angle_gamma    59.99999833940666

_space_group_name_H-M_alt    "P 1"
_space_group_IT_number       1

loop_
  _space_group_symop_operation_xyz
  'x, y, z'

loop_
  _atom_site_type_symbol
  _atom_site_label
  _atom_site_symmetry_multiplicity
  _atom_site_fract_x
  _atom_site_fract_y
  _atom_site_fract_z
  _atom_site_occupancy
  Fe  Fe1       1.0  0.2500003294845738  0.24999979829141109  0.24999984031477507  1.0000
  Fe  Fe2       1.0  0.7499999129485639  0.7500002180349041  0.7500001647480387  1.0000
  Mn  Mn1       1.0  1.305196868236808e-07  0.9999998290613965  8.525215113696563e-08  1.0000
  I   I1        1.0  0.24751577143689069  0.24751569174726548  0.7524842831396943  1.0000
  I   I2        1.0  0.7524842968580338  0.7524843212598534  0.24751560061812292  1.0000
  I   I3        1.0  0.7524841200202067  0.24751575090602068  0.2475158784713243  1.0000
  I   I4        1.0  0.2475156830837919  0.752484301931458  0.7524842616027326  1.0000
  I   I5        1.0  0.2475156848077011  0.7524842905064814  0.2475157355171722  1.0000
  I   I6        1.0  0.7524840577156249  0.24751579386335845  0.7524841711057654  1.0000
