data_image0
_chemical_formula_structural       Fe2MgBr6
_chemical_formula_sum              "Fe2 Mg1 Br6"
_cell_length_a       6.912992935762284
_cell_length_b       6.912993031715611
_cell_length_c       6.912993069351753
_cell_angle_alpha    59.99999933677893
_cell_angle_beta     59.99999877999012
_cell_angle_gamma    60.00000081748531

_space_group_name_H-M_alt    "P 1"
_space_group_IT_number       1

loop_
  _space_group_symop_operation_xyz
  'x, y, z'

loop_
  _atom_site_type_symbol
  _atom_site_label
  _atom_site_symmetry_multiplicity
  _atom_site_fract_x
  _atom_site_fract_y
  _atom_site_fract_z
  _atom_site_occupancy
  Fe  Fe1       1.0  0.24999998759791003  0.2500000611417528  0.2499999092954292  1.0000
  Fe  Fe2       1.0  0.7500000074412575  0.7499999442516372  0.7500000334527409  1.0000
  Mg  Mg1       1.0  0.9999999811370993  0.9999999964566869  0.9999999793789756  1.0000
  Br  Br1       1.0  0.2626911669909074  0.26269119487538634  0.7373088069226372  1.0000
  Br  Br2       1.0  0.737308856139966  0.737308826462912  0.2626911427382543  1.0000
  Br  Br3       1.0  0.7373088277395183  0.2626911751208443  0.26269116983298524  1.0000
  Br  Br4       1.0  0.2626911264010575  0.7373088727922997  0.7373088936149236  1.0000
  Br  Br5       1.0  0.2626912143703388  0.7373088176571223  0.2626911570462052  1.0000
  Br  Br6       1.0  0.7373088377989111  0.26269111155504055  0.7373089008257916  1.0000
