data_image0
_chemical_formula_structural       Fe2MnF6
_chemical_formula_sum              "Fe2 Mn1 F6"
_cell_length_a       4.384762620737657
_cell_length_b       4.384771038463194
_cell_length_c       4.384790609861206
_cell_angle_alpha    59.999563312722934
_cell_angle_beta     59.999715160857306
_cell_angle_gamma    59.9998256120871

_space_group_name_H-M_alt    "P 1"
_space_group_IT_number       1

loop_
  _space_group_symop_operation_xyz
  'x, y, z'

loop_
  _atom_site_type_symbol
  _atom_site_label
  _atom_site_symmetry_multiplicity
  _atom_site_fract_x
  _atom_site_fract_y
  _atom_site_fract_z
  _atom_site_occupancy
  Fe  Fe1       1.0  0.2499818724575507  0.2500016118985215  0.25005515633026926  1.0000
  Fe  Fe2       1.0  0.7500086638348795  0.7500229777195073  0.7500543969632153  1.0000
  Mn  Mn1       1.0  3.979613355888929e-06  0.9999894754161656  0.9999519291192855  1.0000
  F   F1        1.0  0.2580492390292728  0.25804663724750243  0.7419453177449475  1.0000
  F   F2        1.0  0.741948046311188  0.7419494258916476  0.2580525506245163  1.0000
  F   F3        1.0  0.7419604966906068  0.25803640837881625  0.25802972544387603  1.0000
  F   F4        1.0  0.25806816156650936  0.7419340161752629  0.741936578874988  1.0000
  F   F5        1.0  0.25804071776808135  0.741955779067809  0.2580346633342568  1.0000
  F   F6        1.0  0.7419388968729794  0.25806359887965374  0.7419396590310235  1.0000
