data_image0
_chemical_formula_structural       Fe2MgI6
_chemical_formula_sum              "Fe2 Mg1 I6"
_cell_length_a       7.5922753133017835
_cell_length_b       7.592275491228329
_cell_length_c       7.592275254734334
_cell_angle_alpha    60.00000052193969
_cell_angle_beta     60.00000177563054
_cell_angle_gamma    60.00000133423151

_space_group_name_H-M_alt    "P 1"
_space_group_IT_number       1

loop_
  _space_group_symop_operation_xyz
  'x, y, z'

loop_
  _atom_site_type_symbol
  _atom_site_label
  _atom_site_symmetry_multiplicity
  _atom_site_fract_x
  _atom_site_fract_y
  _atom_site_fract_z
  _atom_site_occupancy
  Fe  Fe1       1.0  0.2499999087158261  0.2499999360604387  0.2500001325557837  1.0000
  Fe  Fe2       1.0  0.750000085625306  0.7500000985475939  0.7499999239098125  1.0000
  Mg  Mg1       1.0  0.9999999412072296  2.5810335706473565e-08  0.9999999782944982  1.0000
  I   I1        1.0  0.26575665206591037  0.26575662078125256  0.7342433900108001  1.0000
  I   I2        1.0  0.7342433598194832  0.7342433976953208  0.2657566275516768  1.0000
  I   I3        1.0  0.7342433395586759  0.26575661586810406  0.2657566961739933  1.0000
  I   I4        1.0  0.26575661674440954  0.7342434461634112  0.7342432457402162  1.0000
  I   I5        1.0  0.26575666339913134  0.7342433257300947  0.2657566444795044  1.0000
  I   I6        1.0  0.7342434155003326  0.2657565282055907  0.7342433717955102  1.0000
