data_image0
_chemical_formula_structural       Fe2MnBr6
_chemical_formula_sum              "Fe2 Mn1 Br6"
_cell_length_a       6.910341105009207
_cell_length_b       6.910341399120963
_cell_length_c       6.9103413544104315
_cell_angle_alpha    59.999997865531974
_cell_angle_beta     59.99999908545385
_cell_angle_gamma    59.99999917073305

_space_group_name_H-M_alt    "P 1"
_space_group_IT_number       1

loop_
  _space_group_symop_operation_xyz
  'x, y, z'

loop_
  _atom_site_type_symbol
  _atom_site_label
  _atom_site_symmetry_multiplicity
  _atom_site_fract_x
  _atom_site_fract_y
  _atom_site_fract_z
  _atom_site_occupancy
  Fe  Fe1       1.0  0.25000010098364067  0.24999986924014708  0.25000005334921177  1.0000
  Fe  Fe2       1.0  0.7499999998525967  0.7500002262658069  0.7500002295198266  1.0000
  Mn  Mn1       1.0  7.173315627898596e-09  3.544673907413176e-09  0.9999999468864902  1.0000
  Br  Br1       1.0  0.24353793174611385  0.2435378038241684  0.7564621104029776  1.0000
  Br  Br2       1.0  0.7564619852510961  0.7564621764799403  0.24353781694632468  1.0000
  Br  Br3       1.0  0.7564620901656306  0.2435379367076573  0.2435378290009387  1.0000
  Br  Br4       1.0  0.24353786300224464  0.7564620453687882  0.7564620518818388  1.0000
  Br  Br5       1.0  0.24353785750088114  0.7564620826062202  0.24353791863459742  1.0000
  Br  Br6       1.0  0.7564621823897406  0.24353784984480575  0.7564620435498673  1.0000
