data_image0
_chemical_formula_structural       Fe2MnCl6
_chemical_formula_sum              "Fe2 Mn1 Cl6"
_cell_length_a       6.441937280337359
_cell_length_b       6.44193704245258
_cell_length_c       6.4419370785394285
_cell_angle_alpha    59.99999726298216
_cell_angle_beta     59.99999868661984
_cell_angle_gamma    59.99999648559531

_space_group_name_H-M_alt    "P 1"
_space_group_IT_number       1

loop_
  _space_group_symop_operation_xyz
  'x, y, z'

loop_
  _atom_site_type_symbol
  _atom_site_label
  _atom_site_symmetry_multiplicity
  _atom_site_fract_x
  _atom_site_fract_y
  _atom_site_fract_z
  _atom_site_occupancy
  Fe  Fe1       1.0  0.2499999261399937  0.2500000487584105  0.2500001819214397  1.0000
  Fe  Fe2       1.0  0.7500002743453084  0.7499997070966622  0.7499996123836525  1.0000
  Mn  Mn1       1.0  0.9999999975737881  1.901203147329014e-09  1.4307669034139652e-07  1.0000
  Cl  Cl1       1.0  0.25157804808294615  0.2515782678141619  0.748421798808043  1.0000
  Cl  Cl2       1.0  0.7484217867312243  0.7484218644796929  0.2515782928172043  1.0000
  Cl  Cl3       1.0  0.7484218821051314  0.25157806765572127  0.2515781644439797  1.0000
  Cl  Cl4       1.0  0.2515781748703013  0.7484218821223582  0.7484218375037589  1.0000
  Cl  Cl5       1.0  0.2515780073248361  0.7484219091940205  0.2515781678875445  1.0000
  Cl  Cl6       1.0  0.7484219027545905  0.25157825542033635  0.7484217954330724  1.0000
