data_image0
_chemical_formula_structural       Fe2MnSe6
_chemical_formula_sum              "Fe2 Mn1 Se6"
_cell_length_a       6.172915602016735
_cell_length_b       6.172915790731838
_cell_length_c       6.172915613145187
_cell_angle_alpha    60.000000025077966
_cell_angle_beta     59.99999918908596
_cell_angle_gamma    59.99999942481809

_space_group_name_H-M_alt    "P 1"
_space_group_IT_number       1

loop_
  _space_group_symop_operation_xyz
  'x, y, z'

loop_
  _atom_site_type_symbol
  _atom_site_label
  _atom_site_symmetry_multiplicity
  _atom_site_fract_x
  _atom_site_fract_y
  _atom_site_fract_z
  _atom_site_occupancy
  Fe  Fe1       1.0  0.25000000753459106  0.24999993764613984  0.25000006367428196  1.0000
  Fe  Fe2       1.0  0.7500000921722112  0.7499999577749573  0.7500000643805963  1.0000
  Mn  Mn1       1.0  0.9999999871133296  2.1824683867122005e-08  1.3350773506370332e-08  1.0000
  Se  Se1       1.0  0.27564509317982683  0.2756451017194068  0.7243548029667501  1.0000
  Se  Se2       1.0  0.7243548466189079  0.7243548413191865  0.275645062097349  1.0000
  Se  Se3       1.0  0.72435486182624  0.2756451699911959  0.275645120483755  1.0000
  Se  Se4       1.0  0.2756451295158358  0.7243548821708149  0.7243548375848268  1.0000
  Se  Se5       1.0  0.2756451293283293  0.7243549153711409  0.2756451669076018  1.0000
  Se  Se6       1.0  0.7243548574782696  0.27564517845617476  0.7243548681748873  1.0000
