data_image0
_chemical_formula_structural       Fe2MgF6
_chemical_formula_sum              "Fe2 Mg1 F6"
_cell_length_a       5.20400546424555
_cell_length_b       5.204005452114159
_cell_length_c       5.204005575649987
_cell_angle_alpha    59.99999919844976
_cell_angle_beta     59.999999897627035
_cell_angle_gamma    59.99999955696798

_space_group_name_H-M_alt    "P 1"
_space_group_IT_number       1

loop_
  _space_group_symop_operation_xyz
  'x, y, z'

loop_
  _atom_site_type_symbol
  _atom_site_label
  _atom_site_symmetry_multiplicity
  _atom_site_fract_x
  _atom_site_fract_y
  _atom_site_fract_z
  _atom_site_occupancy
  Fe  Fe1       1.0  0.249999745698583  0.24999984937386907  0.2500003846255915  1.0000
  Fe  Fe2       1.0  0.7499998652315695  0.7499998870206829  0.7500002264704893  1.0000
  Mg  Mg1       1.0  0.9999999585797945  7.766437125426192e-08  0.9999999665051432  1.0000
  F   F1        1.0  0.2537608893729882  0.25376072413285444  0.7462391587031728  1.0000
  F   F2        1.0  0.7462392582502564  0.746239259375607  0.25376075879872584  1.0000
  F   F3        1.0  0.7462392652171044  0.25376092486116697  0.25376064764158346  1.0000
  F   F4        1.0  0.2537607900825859  0.746239362244382  0.7462390969676632  1.0000
  F   F5        1.0  0.25376088332009045  0.7462390269170103  0.25376070069665546  1.0000
  F   F6        1.0  0.7462393240126971  0.2537608506854904  0.7462391284508431  1.0000
