data_image0
_chemical_formula_structural       Fe2MnI6
_chemical_formula_sum              "Fe2 Mn1 I6"
_cell_length_a       7.3785242129779505
_cell_length_b       7.378524389218725
_cell_length_c       7.378524340290645
_cell_angle_alpha    59.99999864822258
_cell_angle_beta     59.99999864749989
_cell_angle_gamma    59.99999879393002

_space_group_name_H-M_alt    "P 1"
_space_group_IT_number       1

loop_
  _space_group_symop_operation_xyz
  'x, y, z'

loop_
  _atom_site_type_symbol
  _atom_site_label
  _atom_site_symmetry_multiplicity
  _atom_site_fract_x
  _atom_site_fract_y
  _atom_site_fract_z
  _atom_site_occupancy
  Fe  Fe1       1.0  0.24999990051235557  0.25000001315894305  0.249999968224426  1.0000
  Fe  Fe2       1.0  0.749999878473897  0.7499998701692889  0.7500000729797709  1.0000
  Mn  Mn1       1.0  3.416035003035722e-08  0.9999999867209775  0.9999999760064907  1.0000
  I   I1        1.0  0.24794984401585854  0.247949734639782  0.7520502401059258  1.0000
  I   I2        1.0  0.752050228198714  0.7520502549206252  0.24794975044932047  1.0000
  I   I3        1.0  0.7520501975113465  0.2479498406173728  0.2479498068050706  1.0000
  I   I4        1.0  0.24794977391183415  0.7520502916925254  0.7520502291800677  1.0000
  I   I5        1.0  0.2479498308402585  0.7520502361064957  0.24794978667804718  1.0000
  I   I6        1.0  0.7520503154638679  0.24794978001195528  0.7520501765932367  1.0000
