data_image0
_chemical_formula_structural       Fe2NiI6
_chemical_formula_sum              "Fe2 Ni1 I6"
_cell_length_a       7.300792049953618
_cell_length_b       7.300792038666381
_cell_length_c       7.300792149679421
_cell_angle_alpha    59.99999975133955
_cell_angle_beta     60.00000008572797
_cell_angle_gamma    60.00000014146253

_space_group_name_H-M_alt    "P 1"
_space_group_IT_number       1

loop_
  _space_group_symop_operation_xyz
  'x, y, z'

loop_
  _atom_site_type_symbol
  _atom_site_label
  _atom_site_symmetry_multiplicity
  _atom_site_fract_x
  _atom_site_fract_y
  _atom_site_fract_z
  _atom_site_occupancy
  Fe  Fe1       1.0  0.2499999667774327  0.25000016706735506  0.24999995171722575  1.0000
  Fe  Fe2       1.0  0.7500000137233458  0.7499998905736134  0.7500000270663733  1.0000
  Ni  Ni1       1.0  6.342900526742743e-09  0.9999999714816382  0.9999999973905868  1.0000
  I   I1        1.0  0.2541720720117762  0.2541720951640409  0.7458279097589194  1.0000
  I   I2        1.0  0.7458279468643254  0.745827885309596  0.254172114445257  1.0000
  I   I3        1.0  0.7458279124371799  0.2541720981764783  0.2541720629845604  1.0000
  I   I4        1.0  0.2541720640862941  0.7458279192032737  0.7458279365485846  1.0000
  I   I5        1.0  0.2541720947928435  0.7458278902661017  0.25417205964260503  1.0000
  I   I6        1.0  0.745827928828088  0.25417209020753495  0.7458279252068684  1.0000
