data_image0
_chemical_formula_structural       Fe2NiI6
_chemical_formula_sum              "Fe2 Ni1 I6"
_cell_length_a       7.299309890295126
_cell_length_b       7.299309984795231
_cell_length_c       7.299309995867073
_cell_angle_alpha    60.00000107858379
_cell_angle_beta     60.00000150239119
_cell_angle_gamma    60.000001996826455

_space_group_name_H-M_alt    "P 1"
_space_group_IT_number       1

loop_
  _space_group_symop_operation_xyz
  'x, y, z'

loop_
  _atom_site_type_symbol
  _atom_site_label
  _atom_site_symmetry_multiplicity
  _atom_site_fract_x
  _atom_site_fract_y
  _atom_site_fract_z
  _atom_site_occupancy
  Fe  Fe1       1.0  0.24999979192603752  0.24999995600044805  0.2500001774047942  1.0000
  Fe  Fe2       1.0  0.7500001119518253  0.7499998377993095  0.7500002093683896  1.0000
  Ni  Ni1       1.0  1.9657711066402204e-09  0.9999999798653046  0.9999999803146193  1.0000
  I   I1        1.0  0.2542643346867582  0.25426431434023583  0.7457356573682444  1.0000
  I   I2        1.0  0.7457356843484368  0.7457357177200822  0.25426421704783264  1.0000
  I   I3        1.0  0.7457357341450542  0.25426443098634843  0.2542642000086121  1.0000
  I   I4        1.0  0.25426424108951307  0.7457357134926843  0.7457356661282792  1.0000
  I   I5        1.0  0.2542643286474928  0.7457357108825591  0.25426427745434055  1.0000
  I   I6        1.0  0.745735768269703  0.2542643295672164  0.7457356182156564  1.0000
