data_image0
_chemical_formula_structural       Fe2NiSe6
_chemical_formula_sum              "Fe2 Ni1 Se6"
_cell_length_a       6.15828359418689
_cell_length_b       6.15828335355119
_cell_length_c       6.158283531952294
_cell_angle_alpha    60.00000007425306
_cell_angle_beta     59.99999852314621
_cell_angle_gamma    59.999999627478466

_space_group_name_H-M_alt    "P 1"
_space_group_IT_number       1

loop_
  _space_group_symop_operation_xyz
  'x, y, z'

loop_
  _atom_site_type_symbol
  _atom_site_label
  _atom_site_symmetry_multiplicity
  _atom_site_fract_x
  _atom_site_fract_y
  _atom_site_fract_z
  _atom_site_occupancy
  Fe  Fe1       1.0  0.25000064999403787  0.24999940502270585  0.2499997345948987  1.0000
  Fe  Fe2       1.0  0.7500001782734707  0.7499997782463664  0.7499989199547747  1.0000
  Ni  Ni1       1.0  0.9999999120422247  8.9494940596072e-08  1.1777094347058956e-07  1.0000
  Se  Se1       1.0  0.2752395601884528  0.2752402030506583  0.7247600108949496  1.0000
  Se  Se2       1.0  0.724759762362366  0.7247604260588907  0.27524017888243707  1.0000
  Se  Se3       1.0  0.7247599936189209  0.27523987120492205  0.27524018561185865  1.0000
  Se  Se4       1.0  0.2752402153986784  0.7247601572941603  0.7247602558278253  1.0000
  Se  Se5       1.0  0.27523970843651496  0.7247601390120685  0.2752402802802169  1.0000
  Se  Se6       1.0  0.7247600184497514  0.2752399352288679  0.7247603160248786  1.0000
