data_image0
_chemical_formula_structural       Fe2NiO6
_chemical_formula_sum              "Fe2 Ni1 O6"
_cell_length_a       3.442549604287244
_cell_length_b       3.6092711403785813
_cell_length_c       3.3820471344685195
_cell_angle_alpha    27.18642387175069
_cell_angle_beta     70.77530066301426
_cell_angle_gamma    57.96397602381022

_space_group_name_H-M_alt    "P 1"
_space_group_IT_number       1

loop_
  _space_group_symop_operation_xyz
  'x, y, z'

loop_
  _atom_site_type_symbol
  _atom_site_label
  _atom_site_symmetry_multiplicity
  _atom_site_fract_x
  _atom_site_fract_y
  _atom_site_fract_z
  _atom_site_occupancy
  Fe  Fe1       1.0  0.6106484451761452  0.6417581446324238  0.3296046546745127  1.0000
  Fe  Fe2       1.0  0.3886279375272842  0.38054362595548374  0.9120457789803258  1.0000
  Ni  Ni1       1.0  0.1652839676406984  0.019200751429496808  0.040398640414035805  1.0000
  O   O1        1.0  0.24740205653493108  0.4008267350115231  0.39137781262916604  1.0000
  O   O2        1.0  0.20040722880766454  0.772825585882279  0.5505881571826714  1.0000
  O   O3        1.0  0.9902560472785857  0.9484860486663453  0.6256514406071304  1.0000
  O   O4        1.0  0.5523747188044323  0.5402091737018939  0.0737183620735995  1.0000
  O   O5        1.0  0.17548274467717434  0.4349474228807594  0.6706721288256544  1.0000
  O   O6        1.0  0.32308839415866  0.8383350764274338  0.20114855516385255  1.0000
