data_image0
_chemical_formula_structural       Fe2NiTe6
_chemical_formula_sum              "Fe2 Ni1 Te6"
_cell_length_a       6.808248540959873
_cell_length_b       6.808248354583186
_cell_length_c       6.808248228439447
_cell_angle_alpha    60.000000990931575
_cell_angle_beta     59.99999982817592
_cell_angle_gamma    59.999999699762654

_space_group_name_H-M_alt    "P 1"
_space_group_IT_number       1

loop_
  _space_group_symop_operation_xyz
  'x, y, z'

loop_
  _atom_site_type_symbol
  _atom_site_label
  _atom_site_symmetry_multiplicity
  _atom_site_fract_x
  _atom_site_fract_y
  _atom_site_fract_z
  _atom_site_occupancy
  Fe  Fe1       1.0  0.2499996553616058  0.2500001204013466  0.2500001354578967  1.0000
  Fe  Fe2       1.0  0.7499999688747884  0.7499999528507179  0.7500005321716551  1.0000
  Ni  Ni1       1.0  0.9999999944121238  1.7449458898906927e-07  0.9999996555678742  1.0000
  Te  Te1       1.0  0.26333074962789815  0.2633307713470888  0.7366691210944378  1.0000
  Te  Te2       1.0  0.7366691834098498  0.7366690878342802  0.26333059879132853  1.0000
  Te  Te3       1.0  0.7366694447080786  0.2633308498848141  0.26333075467395745  1.0000
  Te  Te4       1.0  0.2633307152862324  0.736669203579198  0.7366692907066162  1.0000
  Te  Te5       1.0  0.263330940154964  0.7366691535546125  0.26333071563385246  1.0000
  Te  Te6       1.0  0.736669345469261  0.2633306858387126  0.7366692035855387  1.0000
