data_image0
_chemical_formula_structural       Fe2NbBr6
_chemical_formula_sum              "Fe2 Nb1 Br6"
_cell_length_a       7.147822717704757
_cell_length_b       7.147822572279189
_cell_length_c       7.147822606779551
_cell_angle_alpha    60.00000067920331
_cell_angle_beta     59.99999991381494
_cell_angle_gamma    59.999999783367315

_space_group_name_H-M_alt    "P 1"
_space_group_IT_number       1

loop_
  _space_group_symop_operation_xyz
  'x, y, z'

loop_
  _atom_site_type_symbol
  _atom_site_label
  _atom_site_symmetry_multiplicity
  _atom_site_fract_x
  _atom_site_fract_y
  _atom_site_fract_z
  _atom_site_occupancy
  Fe  Fe1       1.0  0.25000000809302425  0.2500000071242899  0.2500000203498339  1.0000
  Fe  Fe2       1.0  0.7499999937981776  0.7499999819634803  0.7500000540238203  1.0000
  Nb  Nb1       1.0  4.324219554318498e-08  0.9999999914327419  1.6239189737012256e-08  1.0000
  Br  Br1       1.0  0.2530768548815268  0.25307688047745364  0.7469231136424216  1.0000
  Br  Br2       1.0  0.7469231149776905  0.7469231223179289  0.2530768593702507  1.0000
  Br  Br3       1.0  0.7469231254711716  0.25307688327402883  0.2530768462157416  1.0000
  Br  Br4       1.0  0.25307686795076684  0.7469231263751605  0.7469231241799137  1.0000
  Br  Br5       1.0  0.2530768860902888  0.7469231051389864  0.2530768673373353  1.0000
  Br  Br6       1.0  0.746923109616252  0.253076897656396  0.7469230969487577  1.0000
