data_image0
_chemical_formula_structural       Fe2NbCl6
_chemical_formula_sum              "Fe2 Nb1 Cl6"
_cell_length_a       6.6110022909364945
_cell_length_b       6.611002386109515
_cell_length_c       6.6110024726307435
_cell_angle_alpha    59.999999882810066
_cell_angle_beta     60.00000051573291
_cell_angle_gamma    59.99999851596929

_space_group_name_H-M_alt    "P 1"
_space_group_IT_number       1

loop_
  _space_group_symop_operation_xyz
  'x, y, z'

loop_
  _atom_site_type_symbol
  _atom_site_label
  _atom_site_symmetry_multiplicity
  _atom_site_fract_x
  _atom_site_fract_y
  _atom_site_fract_z
  _atom_site_occupancy
  Fe  Fe1       1.0  0.25000002309277825  0.250000019699692  0.25000000362662134  1.0000
  Fe  Fe2       1.0  0.7499999375967386  0.7499998201155172  0.7500001704977314  1.0000
  Nb  Nb1       1.0  0.9999999875434759  4.260947249917863e-08  0.999999951645668  1.0000
  Cl  Cl1       1.0  0.25784008971898176  0.2578401411466114  0.7421598845358338  1.0000
  Cl  Cl2       1.0  0.7421599472713996  0.7421599413573292  0.2578400438738179  1.0000
  Cl  Cl3       1.0  0.7421599378388433  0.25784008936882263  0.25784005643759655  1.0000
  Cl  Cl4       1.0  0.2578400674306194  0.742159946820475  0.7421599261161347  1.0000
  Cl  Cl5       1.0  0.25784004889426565  0.7421599291688027  0.2578400618238564  1.0000
  Cl  Cl6       1.0  0.7421599580340585  0.2578400810842944  0.7421598920275368  1.0000
