data_image0
_chemical_formula_structural       Fe2PbBr6
_chemical_formula_sum              "Fe2 Pb1 Br6"
_cell_length_a       7.046716764975272
_cell_length_b       7.046716778910366
_cell_length_c       7.046716717611159
_cell_angle_alpha    60.0000004062203
_cell_angle_beta     60.00000000881659
_cell_angle_gamma    60.000000216485596

_space_group_name_H-M_alt    "P 1"
_space_group_IT_number       1

loop_
  _space_group_symop_operation_xyz
  'x, y, z'

loop_
  _atom_site_type_symbol
  _atom_site_label
  _atom_site_symmetry_multiplicity
  _atom_site_fract_x
  _atom_site_fract_y
  _atom_site_fract_z
  _atom_site_occupancy
  Fe  Fe1       1.0  0.2500000055937946  0.25000001387096726  0.250000020058616  1.0000
  Fe  Fe2       1.0  0.7499999440367535  0.7499999894718165  0.7499999920614495  1.0000
  Pb  Pb1       1.0  0.9999999763803475  6.9521446630637194e-09  0.9999999941427479  1.0000
  Br  Br1       1.0  0.26753723373859917  0.26753725180660054  0.7324627658887882  1.0000
  Br  Br2       1.0  0.7324627691887993  0.7324627637024365  0.2675372447199388  1.0000
  Br  Br3       1.0  0.7324628051589618  0.2675372164365001  0.2675372069027318  1.0000
  Br  Br4       1.0  0.2675372504206502  0.7324627590977049  0.7324627704043926  1.0000
  Br  Br5       1.0  0.2675372478975441  0.7324627598362613  0.26753722351465964  1.0000
  Br  Br6       1.0  0.7324627623625444  0.2675372435065223  0.7324627809962453  1.0000
