data_image0
_chemical_formula_structural       Fe2PBr6
_chemical_formula_sum              "Fe2 P1 Br6"
_cell_length_a       6.926051454088069
_cell_length_b       6.926051689509757
_cell_length_c       6.926051639088043
_cell_angle_alpha    60.00000078043514
_cell_angle_beta     60.000000432370314
_cell_angle_gamma    60.000000377083694

_space_group_name_H-M_alt    "P 1"
_space_group_IT_number       1

loop_
  _space_group_symop_operation_xyz
  'x, y, z'

loop_
  _atom_site_type_symbol
  _atom_site_label
  _atom_site_symmetry_multiplicity
  _atom_site_fract_x
  _atom_site_fract_y
  _atom_site_fract_z
  _atom_site_occupancy
  Fe  Fe1       1.0  0.2500001168766218  0.2500000172624407  0.24999994516511395  1.0000
  Fe  Fe2       1.0  0.749999856085845  0.749999844894344  0.7500000894776233  1.0000
  P   P1        1.0  0.9999999962784567  0.9999999911584198  8.713570908867243e-08  1.0000
  Br  Br1       1.0  0.2583646638639888  0.2583646674230955  0.741635330892174  1.0000
  Br  Br2       1.0  0.741635355794019  0.7416353397356077  0.2583646411097882  1.0000
  Br  Br3       1.0  0.7416352739382541  0.2583647219542115  0.25836463057311054  1.0000
  Br  Br4       1.0  0.25836473873026916  0.7416353311807099  0.7416353089410682  1.0000
  Br  Br5       1.0  0.25836466815929066  0.7416353536156973  0.2583646624426045  1.0000
  Br  Br6       1.0  0.7416353278200374  0.2583647295805976  0.741635315144031  1.0000
