data_image0
_chemical_formula_structural       Fe2PF6
_chemical_formula_sum              "Fe2 P1 F6"
_cell_length_a       4.63831630033697
_cell_length_b       2.162249056939968
_cell_length_c       4.857967788674615
_cell_angle_alpha    58.119214697650264
_cell_angle_beta     57.049124854248475
_cell_angle_gamma    59.039047756591316

_space_group_name_H-M_alt    "P 1"
_space_group_IT_number       1

loop_
  _space_group_symop_operation_xyz
  'x, y, z'

loop_
  _atom_site_type_symbol
  _atom_site_label
  _atom_site_symmetry_multiplicity
  _atom_site_fract_x
  _atom_site_fract_y
  _atom_site_fract_z
  _atom_site_occupancy
  Fe  Fe1       1.0  0.16644211543187795  0.3303033935083268  0.24937933339432444  1.0000
  Fe  Fe2       1.0  0.8912878954226175  0.8954224218818869  0.40106724582906805  1.0000
  P   P1        1.0  0.9192761925312796  0.8142809567695385  0.3334952806759074  1.0000
  F   F1        1.0  0.463272294609665  0.9384219517837697  0.02197793889672178  1.0000
  F   F2        1.0  0.8623927166016345  0.6615038427536478  0.8315232315551311  1.0000
  F   F3        1.0  0.8712588525121097  0.584412628641851  0.8575629160170797  1.0000
  F   F4        1.0  0.1656230866966559  0.3648479942974612  0.2395791418481237  1.0000
  F   F5        1.0  0.45142352495731447  0.9651039213509437  0.5938163462409655  1.0000
  F   F6        1.0  0.5969445627367562  0.5442830221123118  0.4301763027955192  1.0000
