data_image0
_chemical_formula_structural       Fe2PtBr6
_chemical_formula_sum              "Fe2 Pt1 Br6"
_cell_length_a       6.90869005090236
_cell_length_b       6.908689982140763
_cell_length_c       6.9086901275043235
_cell_angle_alpha    59.99999995208586
_cell_angle_beta     59.99999951008145
_cell_angle_gamma    60.000000063868384

_space_group_name_H-M_alt    "P 1"
_space_group_IT_number       1

loop_
  _space_group_symop_operation_xyz
  'x, y, z'

loop_
  _atom_site_type_symbol
  _atom_site_label
  _atom_site_symmetry_multiplicity
  _atom_site_fract_x
  _atom_site_fract_y
  _atom_site_fract_z
  _atom_site_occupancy
  Fe  Fe1       1.0  0.2500000296727376  0.24999994149336768  0.2500000713163435  1.0000
  Fe  Fe2       1.0  0.7499999716482909  0.7499999609826152  0.7500000335833548  1.0000
  Pt  Pt1       1.0  0.9999999850590189  0.9999999946817207  8.105479701882936e-08  1.0000
  Br  Br1       1.0  0.2492936443463289  0.2492936778440285  0.7507063243331411  1.0000
  Br  Br2       1.0  0.7507063450027297  0.750706355816188  0.24929363845564015  1.0000
  Br  Br3       1.0  0.7507063303264545  0.2492936919665499  0.24929360574341122  1.0000
  Br  Br4       1.0  0.24929369364932072  0.7507063080112278  0.7507063203869211  1.0000
  Br  Br5       1.0  0.24929369773813798  0.7507063076395117  0.24929363159818343  1.0000
  Br  Br6       1.0  0.7507063087968006  0.2492937597031431  0.7507062898344624  1.0000
