data_image0
_chemical_formula_structural       Fe2PdCl6
_chemical_formula_sum              "Fe2 Pd1 Cl6"
_cell_length_a       6.467553636001935
_cell_length_b       6.4675536782467065
_cell_length_c       6.467553604461546
_cell_angle_alpha    59.999999749741164
_cell_angle_beta     59.99999994702263
_cell_angle_gamma    60.00000013000361

_space_group_name_H-M_alt    "P 1"
_space_group_IT_number       1

loop_
  _space_group_symop_operation_xyz
  'x, y, z'

loop_
  _atom_site_type_symbol
  _atom_site_label
  _atom_site_symmetry_multiplicity
  _atom_site_fract_x
  _atom_site_fract_y
  _atom_site_fract_z
  _atom_site_occupancy
  Fe  Fe1       1.0  0.24999999773787077  0.25000002862721554  0.24999994622729402  1.0000
  Fe  Fe2       1.0  0.7499999816907009  0.7500000347524036  0.7500000308106469  1.0000
  Pd  Pd1       1.0  3.612211313865954e-08  9.468379019067703e-09  0.9999998426871212  1.0000
  Cl  Cl1       1.0  0.25326802628555595  0.25326806269538676  0.7467319810393803  1.0000
  Cl  Cl2       1.0  0.746731925786917  0.746731906000451  0.2532680925806338  1.0000
  Cl  Cl3       1.0  0.7467319458346171  0.25326804997398933  0.2532680772219206  1.0000
  Cl  Cl4       1.0  0.253268057472211  0.7467319471269827  0.7467319844095832  1.0000
  Cl  Cl5       1.0  0.253268075589565  0.7467319066839353  0.25326807780939997  1.0000
  Cl  Cl6       1.0  0.7467319545164621  0.2532680582245513  0.7467319741493096  1.0000
