data_image0
_chemical_formula_structural       Fe2PdBr6
_chemical_formula_sum              "Fe2 Pd1 Br6"
_cell_length_a       6.844145839490636
_cell_length_b       6.844145833849251
_cell_length_c       6.844145885026905
_cell_angle_alpha    59.999999827417284
_cell_angle_beta     59.99999992156697
_cell_angle_gamma    60.00000040401343

_space_group_name_H-M_alt    "P 1"
_space_group_IT_number       1

loop_
  _space_group_symop_operation_xyz
  'x, y, z'

loop_
  _atom_site_type_symbol
  _atom_site_label
  _atom_site_symmetry_multiplicity
  _atom_site_fract_x
  _atom_site_fract_y
  _atom_site_fract_z
  _atom_site_occupancy
  Fe  Fe1       1.0  0.250000020633128  0.25000002521258785  0.24999998004102414  1.0000
  Fe  Fe2       1.0  0.7499999548964292  0.7499999360584753  0.7500000590308857  1.0000
  Pd  Pd1       1.0  3.822519612657613e-08  0.9999999713683515  3.4652998986624386e-08  1.0000
  Br  Br1       1.0  0.25401844865838474  0.2540184397136142  0.7459815657227276  1.0000
  Br  Br2       1.0  0.7459815521430958  0.7459815823997028  0.2540184346754018  1.0000
  Br  Br3       1.0  0.7459815338193253  0.25401845146754193  0.25401845511326204  1.0000
  Br  Br4       1.0  0.2540184731342067  0.7459815724352532  0.7459815135531513  1.0000
  Br  Br5       1.0  0.25401842106792955  0.7459815848079254  0.25401841534804165  1.0000
  Br  Br6       1.0  0.7459815578007818  0.2540184373053913  0.7459815390334674  1.0000
