data_image0
_chemical_formula_structural       Fe2PdF6
_chemical_formula_sum              "Fe2 Pd1 F6"
_cell_length_a       5.468955459375898
_cell_length_b       5.468954978350036
_cell_length_c       5.46895574347247
_cell_angle_alpha    59.999998265464306
_cell_angle_beta     59.99999850686258
_cell_angle_gamma    60.00000276326416

_space_group_name_H-M_alt    "P 1"
_space_group_IT_number       1

loop_
  _space_group_symop_operation_xyz
  'x, y, z'

loop_
  _atom_site_type_symbol
  _atom_site_label
  _atom_site_symmetry_multiplicity
  _atom_site_fract_x
  _atom_site_fract_y
  _atom_site_fract_z
  _atom_site_occupancy
  Fe  Fe1       1.0  0.24999997601338417  0.24999941285961483  0.2500004373050407  1.0000
  Fe  Fe2       1.0  0.7500003167513147  0.7500004421972094  0.7499992093807442  1.0000
  Pd  Pd1       1.0  0.9999999834712706  1.7915593960984117e-08  0.9999999517654995  1.0000
  F   F1        1.0  0.2586647553250194  0.2586644307651564  0.7413352387087775  1.0000
  F   F2        1.0  0.7413351494116227  0.7413356952650538  0.258664865117923  1.0000
  F   F3        1.0  0.7413353014459967  0.25866444552312867  0.25866484286240254  1.0000
  F   F4        1.0  0.25866465927687504  0.7413355125483658  0.7413352547814479  1.0000
  F   F5        1.0  0.25866437643100787  0.741335483690694  0.2586650062967676  1.0000
  F   F6        1.0  0.7413354826458567  0.2586645639587782  0.7413351412651626  1.0000
