data_image0
_chemical_formula_structural       Fe2PS6
_chemical_formula_sum              "Fe2 P1 S6"
_cell_length_a       6.289519127809281
_cell_length_b       6.289519250249805
_cell_length_c       6.289519121691138
_cell_angle_alpha    59.99999774125702
_cell_angle_beta     59.99999968510561
_cell_angle_gamma    59.99999906360419

_space_group_name_H-M_alt    "P 1"
_space_group_IT_number       1

loop_
  _space_group_symop_operation_xyz
  'x, y, z'

loop_
  _atom_site_type_symbol
  _atom_site_label
  _atom_site_symmetry_multiplicity
  _atom_site_fract_x
  _atom_site_fract_y
  _atom_site_fract_z
  _atom_site_occupancy
  Fe  Fe1       1.0  0.2500003387056314  0.2499999777152476  0.24999971461830237  1.0000
  Fe  Fe2       1.0  0.7500000253034876  0.7499996780521594  0.7500007128266806  1.0000
  P   P1        1.0  0.9999999647835666  1.7525510408945383e-08  3.9054448003687615e-08  1.0000
  S   S1        1.0  0.24257136006408533  0.24257148945625018  0.7574285339755072  1.0000
  S   S2        1.0  0.7574285379508515  0.7574285343469203  0.24257116496475517  1.0000
  S   S3        1.0  0.7574286976274563  0.24257166470279187  0.24257124970266983  1.0000
  S   S4        1.0  0.2425713437507722  0.7574286395085538  0.7574284313253467  1.0000
  S   S5        1.0  0.24257160623893492  0.7574285293898485  0.2425712162486869  1.0000
  S   S6        1.0  0.7574280989129558  0.242571467151403  0.7574289854708872  1.0000
