data_image0
_chemical_formula_structural       Fe2PO6
_chemical_formula_sum              "Fe2 P1 O6"
_cell_length_a       2.3832286611814255
_cell_length_b       3.6990935070828708
_cell_length_c       3.072802563410891
_cell_angle_alpha    80.01110313122676
_cell_angle_beta     49.628964997097206
_cell_angle_gamma    85.88233718408455

_space_group_name_H-M_alt    "P 1"
_space_group_IT_number       1

loop_
  _space_group_symop_operation_xyz
  'x, y, z'

loop_
  _atom_site_type_symbol
  _atom_site_label
  _atom_site_symmetry_multiplicity
  _atom_site_fract_x
  _atom_site_fract_y
  _atom_site_fract_z
  _atom_site_occupancy
  Fe  Fe1       1.0  0.8896728622972518  0.22425014395596324  0.41576834823641606  1.0000
  Fe  Fe2       1.0  0.07801485354038595  0.2400167561632366  0.8561497775780207  1.0000
  P   P1        1.0  0.8422485703431292  0.11827802882233966  0.5768375466840994  1.0000
  O   O1        1.0  0.6007927308824713  0.33802131980044053  0.5220611283249259  1.0000
  O   O2        1.0  0.6835200959803815  0.6842189998963304  0.659685030874094  1.0000
  O   O3        1.0  0.5946498830075833  0.45536505325445276  0.3514128540604501  1.0000
  O   O4        1.0  0.5769402115609854  0.2815140698018704  0.5427592567536919  1.0000
  O   O5        1.0  0.45011679784043124  0.6440006201289313  0.07652234699340899  1.0000
  O   O6        1.0  0.5448837800945132  0.2930729717529078  0.5623035961524343  1.0000
