data_image0
_chemical_formula_structural       Fe2SnI6
_chemical_formula_sum              "Fe2 Sn1 I6"
_cell_length_a       7.658518737688056
_cell_length_b       7.658518864267599
_cell_length_c       7.658518804412522
_cell_angle_alpha    59.9999995777347
_cell_angle_beta     59.99999947147805
_cell_angle_gamma    60.00000077007079

_space_group_name_H-M_alt    "P 1"
_space_group_IT_number       1

loop_
  _space_group_symop_operation_xyz
  'x, y, z'

loop_
  _atom_site_type_symbol
  _atom_site_label
  _atom_site_symmetry_multiplicity
  _atom_site_fract_x
  _atom_site_fract_y
  _atom_site_fract_z
  _atom_site_occupancy
  Fe  Fe1       1.0  0.249999934862662  0.250000027892204  0.24999997742208896  1.0000
  Fe  Fe2       1.0  0.7500000016464705  0.7499999493444125  0.7500000380053538  1.0000
  Sn  Sn1       1.0  9.197936667515915e-09  4.477740013381323e-08  0.9999999860696865  1.0000
  I   I1        1.0  0.26141219913575725  0.2614122086810157  0.738587792389942  1.0000
  I   I2        1.0  0.738587801414166  0.7385877573612513  0.2614122018372223  1.0000
  I   I3        1.0  0.7385877884847915  0.2614122625869279  0.2614122316314476  1.0000
  I   I4        1.0  0.2614122300350918  0.7385877626254749  0.7385877527518498  1.0000
  I   I5        1.0  0.2614122292242767  0.7385877594780855  0.26141223641865746  1.0000
  I   I6        1.0  0.738587810160881  0.2614122257544958  0.7385877823308883  1.0000
