data_image0
_chemical_formula_structural       Fe2SeI6
_chemical_formula_sum              "Fe2 Se1 I6"
_cell_length_a       7.612417862850349
_cell_length_b       7.612417649525626
_cell_length_c       7.612417804546924
_cell_angle_alpha    60.0000000634556
_cell_angle_beta     60.00000136455068
_cell_angle_gamma    59.99999930328664

_space_group_name_H-M_alt    "P 1"
_space_group_IT_number       1

loop_
  _space_group_symop_operation_xyz
  'x, y, z'

loop_
  _atom_site_type_symbol
  _atom_site_label
  _atom_site_symmetry_multiplicity
  _atom_site_fract_x
  _atom_site_fract_y
  _atom_site_fract_z
  _atom_site_occupancy
  Fe  Fe1       1.0  0.24999994736757716  0.25000006568647565  0.249999965139006  1.0000
  Fe  Fe2       1.0  0.7500001250098948  0.749999944465631  0.7499999603925636  1.0000
  Se  Se1       1.0  1.1598621870004794e-08  1.608877466012905e-09  0.9999999592415303  1.0000
  I   I1        1.0  0.26375399366415586  0.26375401700371887  0.7362460082621445  1.0000
  I   I2        1.0  0.736245982798597  0.7362459851040003  0.26375403624477456  1.0000
  I   I3        1.0  0.7362460069177409  0.2637539876423454  0.26375401590334435  1.0000
  I   I4        1.0  0.2637539476806049  0.7362460209008844  0.7362460074178749  1.0000
  I   I5        1.0  0.2637539837398601  0.7362460060657015  0.26375403270849074  1.0000
  I   I6        1.0  0.7362460030806907  0.26375398317099613  0.736246006486825  1.0000
