data_image0
_chemical_formula_structural       Fe2SeBr6
_chemical_formula_sum              "Fe2 Se1 Br6"
_cell_length_a       6.98710399353155
_cell_length_b       6.987103986965803
_cell_length_c       6.987104077266152
_cell_angle_alpha    59.99999986371455
_cell_angle_beta     59.99999930291133
_cell_angle_gamma    60.00000041637086

_space_group_name_H-M_alt    "P 1"
_space_group_IT_number       1

loop_
  _space_group_symop_operation_xyz
  'x, y, z'

loop_
  _atom_site_type_symbol
  _atom_site_label
  _atom_site_symmetry_multiplicity
  _atom_site_fract_x
  _atom_site_fract_y
  _atom_site_fract_z
  _atom_site_occupancy
  Fe  Fe1       1.0  0.24999998628644432  0.24999998096968742  0.2500000494675514  1.0000
  Fe  Fe2       1.0  0.7500000131607928  0.7500000130236547  0.7499999731291875  1.0000
  Se  Se1       1.0  2.9864549856053625e-08  0.9999999649427042  2.120207826184294e-08  1.0000
  Br  Br1       1.0  0.2537580769933891  0.25375806050905525  0.7462419301907681  1.0000
  Br  Br2       1.0  0.7462419299493473  0.7462419159556387  0.25375806593596684  1.0000
  Br  Br3       1.0  0.746241898778298  0.2537580768796574  0.2537580832996333  1.0000
  Br  Br4       1.0  0.2537580813874266  0.7462419749582231  0.7462418842353901  1.0000
  Br  Br5       1.0  0.25375807360918884  0.7462419482326769  0.25375805382340477  1.0000
  Br  Br6       1.0  0.7462419139689868  0.25375806153644814  0.7462419367646034  1.0000
