data_image0
_chemical_formula_structural       Fe2SiBr6
_chemical_formula_sum              "Fe2 Si1 Br6"
_cell_length_a       6.969973728543453
_cell_length_b       6.969973556115682
_cell_length_c       6.969973876547603
_cell_angle_alpha    60.00000005477518
_cell_angle_beta     59.999999439578716
_cell_angle_gamma    60.00000019661987

_space_group_name_H-M_alt    "P 1"
_space_group_IT_number       1

loop_
  _space_group_symop_operation_xyz
  'x, y, z'

loop_
  _atom_site_type_symbol
  _atom_site_label
  _atom_site_symmetry_multiplicity
  _atom_site_fract_x
  _atom_site_fract_y
  _atom_site_fract_z
  _atom_site_occupancy
  Fe  Fe1       1.0  0.25000018761971676  0.2499998057620963  0.2500000369311197  1.0000
  Fe  Fe2       1.0  0.7499999306996039  0.7500000762261192  0.7499997860677678  1.0000
  Si  Si1       1.0  0.9999999731916611  1.5814556393172405e-08  2.988722669686934e-08  1.0000
  Br  Br1       1.0  0.24797157856046384  0.24797160987957192  0.7520284353191664  1.0000
  Br  Br2       1.0  0.752028381702466  0.7520284232255171  0.2479716450959137  1.0000
  Br  Br3       1.0  0.7520283724392984  0.24797162165237105  0.24797162932528982  1.0000
  Br  Br4       1.0  0.24797161704087803  0.7520284430818296  0.7520283761901179  1.0000
  Br  Br5       1.0  0.24797157558825395  0.75202840623465  0.24797164522480544  1.0000
  Br  Br6       1.0  0.7520283806923427  0.24797160402719054  0.7520284227780044  1.0000
