data_image0
_chemical_formula_structural       Fe2SeCl6
_chemical_formula_sum              "Fe2 Se1 Cl6"
_cell_length_a       6.6677356307736275
_cell_length_b       6.667735265769943
_cell_length_c       6.667735024620411
_cell_angle_alpha    60.00000048428821
_cell_angle_beta     60.000000852179014
_cell_angle_gamma    59.99999493054109

_space_group_name_H-M_alt    "P 1"
_space_group_IT_number       1

loop_
  _space_group_symop_operation_xyz
  'x, y, z'

loop_
  _atom_site_type_symbol
  _atom_site_label
  _atom_site_symmetry_multiplicity
  _atom_site_fract_x
  _atom_site_fract_y
  _atom_site_fract_z
  _atom_site_occupancy
  Fe  Fe1       1.0  0.2499998992035553  0.25000003948317545  0.25000011487863705  1.0000
  Fe  Fe2       1.0  0.7500000044708013  0.7499998888466456  0.7499999655618377  1.0000
  Se  Se1       1.0  0.9999999962393296  0.9999999853054169  7.727867295961021e-09  1.0000
  Cl  Cl1       1.0  0.2509096480628561  0.2509097021436682  0.7490902947708188  1.0000
  Cl  Cl2       1.0  0.7490903701696001  0.7490903033327095  0.25090969581636424  1.0000
  Cl  Cl3       1.0  0.7490903084692834  0.2509097186869174  0.25090968231724126  1.0000
  Cl  Cl4       1.0  0.2509097131036433  0.7490903235259185  0.7490902777331594  1.0000
  Cl  Cl5       1.0  0.2509097251073247  0.7490902316494484  0.2509097244494292  1.0000
  Cl  Cl6       1.0  0.7490903247862465  0.25090980872656315  0.7490902298578592  1.0000
