data_image0
_chemical_formula_structural       Fe2SI6
_chemical_formula_sum              "Fe2 S1 I6"
_cell_length_a       7.443498544868443
_cell_length_b       7.4434983270364015
_cell_length_c       7.443498409483882
_cell_angle_alpha    59.99999954254879
_cell_angle_beta     59.99999918772984
_cell_angle_gamma    59.99999988781416

_space_group_name_H-M_alt    "P 1"
_space_group_IT_number       1

loop_
  _space_group_symop_operation_xyz
  'x, y, z'

loop_
  _atom_site_type_symbol
  _atom_site_label
  _atom_site_symmetry_multiplicity
  _atom_site_fract_x
  _atom_site_fract_y
  _atom_site_fract_z
  _atom_site_occupancy
  Fe  Fe1       1.0  0.24999990492507881  0.2500001266771096  0.25000008550781505  1.0000
  Fe  Fe2       1.0  0.7500001627453496  0.7499998831239133  0.7499998927337971  1.0000
  S   S1        1.0  0.9999999277159111  2.1390053939681674e-08  6.037683026440438e-08  1.0000
  I   I1        1.0  0.2625387531329207  0.2625388899708096  0.7374611271670339  1.0000
  I   I2        1.0  0.7374612546637188  0.737461141220267  0.2625388515080861  1.0000
  I   I3        1.0  0.7374611594116774  0.26253889949096815  0.2625388061539962  1.0000
  I   I4        1.0  0.2625388078955783  0.7374610856292216  0.7374611795279934  1.0000
  I   I5        1.0  0.26253883642003834  0.7374610901634857  0.2625388743747908  1.0000
  I   I6        1.0  0.7374612003510349  0.2625388587581511  0.7374611134829263  1.0000
