data_image0
_chemical_formula_structural       Fe2ScF6
_chemical_formula_sum              "Fe2 Sc1 F6"
_cell_length_a       5.580380794674217
_cell_length_b       5.580380959213165
_cell_length_c       5.580380925527614
_cell_angle_alpha    60.000001554653814
_cell_angle_beta     60.00000080793997
_cell_angle_gamma    60.0000060824599

_space_group_name_H-M_alt    "P 1"
_space_group_IT_number       1

loop_
  _space_group_symop_operation_xyz
  'x, y, z'

loop_
  _atom_site_type_symbol
  _atom_site_label
  _atom_site_symmetry_multiplicity
  _atom_site_fract_x
  _atom_site_fract_y
  _atom_site_fract_z
  _atom_site_occupancy
  Fe  Fe1       1.0  0.25000025884302296  0.249999704850292  0.24999981892304152  1.0000
  Fe  Fe2       1.0  0.7500000906180522  0.7500002163069954  0.7500002577382763  1.0000
  Sc  Sc1       1.0  2.2155301602098014e-08  0.9999999956105351  5.7420799302743016e-08  1.0000
  F   F1        1.0  0.2517556816603392  0.2517555533820565  0.7482443351115694  1.0000
  F   F2        1.0  0.7482443157616901  0.7482444182540768  0.25175560381907436  1.0000
  F   F3        1.0  0.7482443061646359  0.2517556037475258  0.25175562774419075  1.0000
  F   F4        1.0  0.25175547056148023  0.7482444030043282  0.7482442534491888  1.0000
  F   F5        1.0  0.2517557657506102  0.7482444993069168  0.2517554690254836  1.0000
  F   F6        1.0  0.7482441006402454  0.2517555798711448  0.7482445389935383  1.0000
