data_image0
_chemical_formula_structural       Fe2SeBr6
_chemical_formula_sum              "Fe2 Se1 Br6"
_cell_length_a       6.987284290592612
_cell_length_b       6.987284598935201
_cell_length_c       6.987284350161145
_cell_angle_alpha    60.000000574239884
_cell_angle_beta     60.000000491984146
_cell_angle_gamma    60.00000230312287

_space_group_name_H-M_alt    "P 1"
_space_group_IT_number       1

loop_
  _space_group_symop_operation_xyz
  'x, y, z'

loop_
  _atom_site_type_symbol
  _atom_site_label
  _atom_site_symmetry_multiplicity
  _atom_site_fract_x
  _atom_site_fract_y
  _atom_site_fract_z
  _atom_site_occupancy
  Fe  Fe1       1.0  0.2499999980503689  0.24999994086018001  0.2500000186903271  1.0000
  Fe  Fe2       1.0  0.749999865015439  0.749999892693315  0.7500002916710767  1.0000
  Se  Se1       1.0  1.5841223251210038e-08  7.011277820482395e-09  1.8628344339653704e-08  1.0000
  Br  Br1       1.0  0.2537500855674208  0.2537500775183381  0.746249908742779  1.0000
  Br  Br2       1.0  0.7462499617989781  0.746249941834026  0.25374999330619097  1.0000
  Br  Br3       1.0  0.7462499579508348  0.2537500919044863  0.25374997413918543  1.0000
  Br  Br4       1.0  0.25375007575959274  0.7462500080775737  0.7462498758176965  1.0000
  Br  Br5       1.0  0.25375008609047844  0.7462499655614265  0.2537499795630309  1.0000
  Br  Br6       1.0  0.7462499602906664  0.2537500765775906  0.7462499258969514  1.0000
