data_image0
_chemical_formula_structural       Fe2SO6
_chemical_formula_sum              "Fe2 S1 O6"
_cell_length_a       4.803270012327019
_cell_length_b       4.803269869232565
_cell_length_c       4.803270001513585
_cell_angle_alpha    60.000000014348956
_cell_angle_beta     59.99999974804121
_cell_angle_gamma    60.00000071193721

_space_group_name_H-M_alt    "P 1"
_space_group_IT_number       1

loop_
  _space_group_symop_operation_xyz
  'x, y, z'

loop_
  _atom_site_type_symbol
  _atom_site_label
  _atom_site_symmetry_multiplicity
  _atom_site_fract_x
  _atom_site_fract_y
  _atom_site_fract_z
  _atom_site_occupancy
  Fe  Fe1       1.0  0.24999995854995347  0.24999993854401836  0.25000007532812013  1.0000
  Fe  Fe2       1.0  0.7499999784587845  0.7500000553146485  0.7499999672981718  1.0000
  S   S1        1.0  2.2631660005487183e-08  0.9999999898007412  6.27528944594557e-09  1.0000
  O   O1        1.0  0.23698242771772615  0.2369824613168474  0.7630174687998429  1.0000
  O   O2        1.0  0.7630175519794982  0.7630175631395971  0.2369824663982061  1.0000
  O   O3        1.0  0.7630176085600385  0.23698242482774481  0.2369824552061977  1.0000
  O   O4        1.0  0.23698246198049777  0.7630175001859241  0.7630175821415884  1.0000
  O   O5        1.0  0.236982451121655  0.7630176317089092  0.2369823959049155  1.0000
  O   O6        1.0  0.7630175008192598  0.2369824615925357  0.7630175874519844  1.0000
