data_image0
_chemical_formula_structural       Fe2SCl6
_chemical_formula_sum              "Fe2 S1 Cl6"
_cell_length_a       6.64841066061545
_cell_length_b       6.648410727096603
_cell_length_c       6.648410655895126
_cell_angle_alpha    60.00000085376368
_cell_angle_beta     60.0000002417816
_cell_angle_gamma    60.00000002890976

_space_group_name_H-M_alt    "P 1"
_space_group_IT_number       1

loop_
  _space_group_symop_operation_xyz
  'x, y, z'

loop_
  _atom_site_type_symbol
  _atom_site_label
  _atom_site_symmetry_multiplicity
  _atom_site_fract_x
  _atom_site_fract_y
  _atom_site_fract_z
  _atom_site_occupancy
  Fe  Fe1       1.0  0.24999999291327651  0.24999999552384145  0.2499999893968993  1.0000
  Fe  Fe2       1.0  0.7500000458431678  0.7500000197304374  0.7499999541584256  1.0000
  S   S1        1.0  1.870153174502383e-08  0.9999999907891907  0.9999999997669955  1.0000
  Cl  Cl1       1.0  0.24865091670401734  0.24865091466829828  0.7513490877842384  1.0000
  Cl  Cl2       1.0  0.7513490638438332  0.7513490563740968  0.24865095661724795  1.0000
  Cl  Cl3       1.0  0.7513491195624182  0.24865087501123398  0.24865089118801692  1.0000
  Cl  Cl4       1.0  0.24865087751066095  0.7513491402430454  0.751349112316081  1.0000
  Cl  Cl5       1.0  0.24865087560210922  0.7513491009680001  0.2486509027622234  1.0000
  Cl  Cl6       1.0  0.7513490852087356  0.24865090323330852  0.7513491168788827  1.0000
