data_image0
_chemical_formula_structural       Fe2ScBr6
_chemical_formula_sum              "Fe2 Sc1 Br6"
_cell_length_a       7.022095440073272
_cell_length_b       7.0220953586883565
_cell_length_c       7.022095333146662
_cell_angle_alpha    60.000000182216006
_cell_angle_beta     60.000000727225526
_cell_angle_gamma    59.99999926150942

_space_group_name_H-M_alt    "P 1"
_space_group_IT_number       1

loop_
  _space_group_symop_operation_xyz
  'x, y, z'

loop_
  _atom_site_type_symbol
  _atom_site_label
  _atom_site_symmetry_multiplicity
  _atom_site_fract_x
  _atom_site_fract_y
  _atom_site_fract_z
  _atom_site_occupancy
  Fe  Fe1       1.0  0.2500000075224476  0.2499999597047069  0.24999998750804733  1.0000
  Fe  Fe2       1.0  0.7500000103897217  0.75000002910932  0.750000048839677  1.0000
  Sc  Sc1       1.0  0.9999999706006262  0.999999989535219  0.9999999601208701  1.0000
  Br  Br1       1.0  0.25949754433841704  0.25949754743422415  0.7405024670419885  1.0000
  Br  Br2       1.0  0.7405024889374502  0.7405024692858863  0.2594975120689362  1.0000
  Br  Br3       1.0  0.7405024716967286  0.2594975468176083  0.2594975006187328  1.0000
  Br  Br4       1.0  0.25949749279723755  0.7405024838555446  0.74050252584369  1.0000
  Br  Br5       1.0  0.25949749758735774  0.7405024909008299  0.2594974837146034  1.0000
  Br  Br6       1.0  0.7405025173352938  0.2594974822160251  0.7405025121337928  1.0000
