data_image0
_chemical_formula_structural       Fe2ScI6
_chemical_formula_sum              "Fe2 Sc1 I6"
_cell_length_a       7.65551367571431
_cell_length_b       7.655513782020763
_cell_length_c       7.6555138261120135
_cell_angle_alpha    60.00000021741812
_cell_angle_beta     60.0000007486549
_cell_angle_gamma    60.00000331639686

_space_group_name_H-M_alt    "P 1"
_space_group_IT_number       1

loop_
  _space_group_symop_operation_xyz
  'x, y, z'

loop_
  _atom_site_type_symbol
  _atom_site_label
  _atom_site_symmetry_multiplicity
  _atom_site_fract_x
  _atom_site_fract_y
  _atom_site_fract_z
  _atom_site_occupancy
  Fe  Fe1       1.0  0.2500000539462052  0.25000002231372775  0.24999994398396685  1.0000
  Fe  Fe2       1.0  0.7499999591610423  0.7499999645526594  0.7500000223661403  1.0000
  Sc  Sc1       1.0  1.1549026564158335e-08  0.999999974402871  2.6617772001795135e-08  1.0000
  I   I1        1.0  0.26036783911375444  0.2603678995971677  0.7396321125008273  1.0000
  I   I2        1.0  0.7396321314702016  0.7396321288645531  0.2603678582320028  1.0000
  I   I3        1.0  0.7396321127175102  0.26036794885339715  0.260367882879209  1.0000
  I   I4        1.0  0.26036788375106856  0.739632119603839  0.7396321136947146  1.0000
  I   I5        1.0  0.26036793184744206  0.7396320591270708  0.2603679002207213  1.0000
  I   I6        1.0  0.7396320795998851  0.26036788294433977  0.7396321376880122  1.0000
