data_image0
_chemical_formula_structural       Fe2SiSe6
_chemical_formula_sum              "Fe2 Si1 Se6"
_cell_length_a       6.314614531532125
_cell_length_b       6.3146145363595405
_cell_length_c       6.31461462787998
_cell_angle_alpha    59.999999716000765
_cell_angle_beta     59.99999874385748
_cell_angle_gamma    60.00000051570148

_space_group_name_H-M_alt    "P 1"
_space_group_IT_number       1

loop_
  _space_group_symop_operation_xyz
  'x, y, z'

loop_
  _atom_site_type_symbol
  _atom_site_label
  _atom_site_symmetry_multiplicity
  _atom_site_fract_x
  _atom_site_fract_y
  _atom_site_fract_z
  _atom_site_occupancy
  Fe  Fe1       1.0  0.24999993069321644  0.24999990857747914  0.25000004543407317  1.0000
  Fe  Fe2       1.0  0.7500000040849213  0.7499999235655408  0.7500002734466605  1.0000
  Si  Si1       1.0  0.999999959954232  5.4307125441704985e-08  7.996885695157108e-08  1.0000
  Se  Se1       1.0  0.2851874331339597  0.28518746273972145  0.7148125211116662  1.0000
  Se  Se2       1.0  0.7148126316183816  0.7148126816692691  0.2851872535888854  1.0000
  Se  Se3       1.0  0.714812727089004  0.2851873281077827  0.2851873273252247  1.0000
  Se  Se4       1.0  0.285187406526528  0.7148125932540862  0.7148124927947332  1.0000
  Se  Se5       1.0  0.28518735939409984  0.71481261823591  0.28518741352452814  1.0000
  Se  Se6       1.0  0.7148125469722509  0.28518742531698943  0.7148125889819957  1.0000
