data_image0
_chemical_formula_structural       Fe2SnCl6
_chemical_formula_sum              "Fe2 Sn1 Cl6"
_cell_length_a       6.7211048342376944
_cell_length_b       6.721104952228751
_cell_length_c       6.7211047871231155
_cell_angle_alpha    59.99999984223975
_cell_angle_beta     59.99999959500639
_cell_angle_gamma    60.000000930311195

_space_group_name_H-M_alt    "P 1"
_space_group_IT_number       1

loop_
  _space_group_symop_operation_xyz
  'x, y, z'

loop_
  _atom_site_type_symbol
  _atom_site_label
  _atom_site_symmetry_multiplicity
  _atom_site_fract_x
  _atom_site_fract_y
  _atom_site_fract_z
  _atom_site_occupancy
  Fe  Fe1       1.0  0.2500001463566318  0.24999993620858482  0.24999988224610123  1.0000
  Fe  Fe2       1.0  0.7500000909694341  0.749999894270907  0.749999925263172  1.0000
  Sn  Sn1       1.0  0.9999999895013176  0.9999999799553885  5.246791296695105e-08  1.0000
  Cl  Cl1       1.0  0.25430872834988383  0.2543088199657638  0.7456912484746339  1.0000
  Cl  Cl2       1.0  0.7456912224445582  0.7456912310044465  0.2543087899392256  1.0000
  Cl  Cl3       1.0  0.7456911671625965  0.2543088009460396  0.2543088139657736  1.0000
  Cl  Cl4       1.0  0.25430873561356726  0.7456912755354934  0.745691246116518  1.0000
  Cl  Cl5       1.0  0.25430877295261406  0.7456912451358093  0.2543087832738664  1.0000
  Cl  Cl6       1.0  0.7456911552991125  0.254308816767825  0.7456912549932362  1.0000
