data_image0
_chemical_formula_structural       Fe2SeF6
_chemical_formula_sum              "Fe2 Se1 F6"
_cell_length_a       5.717117953851595
_cell_length_b       5.717117963038121
_cell_length_c       5.71711804970638
_cell_angle_alpha    59.99999935632546
_cell_angle_beta     60.000000627588214
_cell_angle_gamma    59.99999869668954

_space_group_name_H-M_alt    "P 1"
_space_group_IT_number       1

loop_
  _space_group_symop_operation_xyz
  'x, y, z'

loop_
  _atom_site_type_symbol
  _atom_site_label
  _atom_site_symmetry_multiplicity
  _atom_site_fract_x
  _atom_site_fract_y
  _atom_site_fract_z
  _atom_site_occupancy
  Fe  Fe1       1.0  0.25000032256487703  0.2500001837627683  0.24999965349907358  1.0000
  Fe  Fe2       1.0  0.750000087301193  0.750000399189148  0.749999971748157  1.0000
  Se  Se1       1.0  0.9999999305347986  0.9999999357327481  4.41274967141715e-08  1.0000
  F   F1        1.0  0.24708491511612374  0.24708465184601078  0.7529152360036738  1.0000
  F   F2        1.0  0.7529151173172551  0.7529152820066576  0.24708465238350072  1.0000
  F   F3        1.0  0.7529151934119527  0.24708471341290272  0.2470848032439625  1.0000
  F   F4        1.0  0.24708468248765478  0.7529149205259201  0.7529154393045976  1.0000
  F   F5        1.0  0.2470846394630888  0.752915292066622  0.24708492401004414  1.0000
  F   F6        1.0  0.7529150909706747  0.24708462679035703  0.752915245314092  1.0000
