data_image0
_chemical_formula_structural       Fe2SeCl6
_chemical_formula_sum              "Fe2 Se1 Cl6"
_cell_length_a       6.666310357508021
_cell_length_b       6.666310450180841
_cell_length_c       6.666310383464052
_cell_angle_alpha    60.000000827069286
_cell_angle_beta     60.00000015413139
_cell_angle_gamma    60.00000074508994

_space_group_name_H-M_alt    "P 1"
_space_group_IT_number       1

loop_
  _space_group_symop_operation_xyz
  'x, y, z'

loop_
  _atom_site_type_symbol
  _atom_site_label
  _atom_site_symmetry_multiplicity
  _atom_site_fract_x
  _atom_site_fract_y
  _atom_site_fract_z
  _atom_site_occupancy
  Fe  Fe1       1.0  0.2500000601579318  0.2500000672092676  0.24999992552764405  1.0000
  Fe  Fe2       1.0  0.7500000152418428  0.7499999646270092  0.7499999761992239  1.0000
  Se  Se1       1.0  0.9999999639221779  1.4697723391734189e-08  0.9999999656876443  1.0000
  Cl  Cl1       1.0  0.25093715003771533  0.2509371687872039  0.7490628505456053  1.0000
  Cl  Cl2       1.0  0.7490628207520339  0.7490628079326096  0.25093720304835465  1.0000
  Cl  Cl3       1.0  0.7490627951798123  0.25093717726791587  0.25093721426494947  1.0000
  Cl  Cl4       1.0  0.2509371897642726  0.7490628141496213  0.7490628099021792  1.0000
  Cl  Cl5       1.0  0.2509371847083148  0.7490628302534532  0.2509372058107077  1.0000
  Cl  Cl6       1.0  0.7490628239784446  0.2509371574896531  0.7490628428241428  1.0000
