data_image0
_chemical_formula_structural       Fe2ScCl6
_chemical_formula_sum              "Fe2 Sc1 Cl6"
_cell_length_a       6.56350288852811
_cell_length_b       6.563502835991483
_cell_length_c       6.563502881781617
_cell_angle_alpha    60.00000083721493
_cell_angle_beta     60.000001928833996
_cell_angle_gamma    60.000000482997336

_space_group_name_H-M_alt    "P 1"
_space_group_IT_number       1

loop_
  _space_group_symop_operation_xyz
  'x, y, z'

loop_
  _atom_site_type_symbol
  _atom_site_label
  _atom_site_symmetry_multiplicity
  _atom_site_fract_x
  _atom_site_fract_y
  _atom_site_fract_z
  _atom_site_occupancy
  Fe  Fe1       1.0  0.25000002404760174  0.24999999957993327  0.2499999586061371  1.0000
  Fe  Fe2       1.0  0.7499999592991627  0.7500000733795097  0.7499999223447572  1.0000
  Sc  Sc1       1.0  0.9999999788002951  0.9999999738761017  4.4991874719879415e-08  1.0000
  Cl  Cl1       1.0  0.26090875775231115  0.26090871502360147  0.7390912813713677  1.0000
  Cl  Cl2       1.0  0.739091230305213  0.7390912646362051  0.26090876576009947  1.0000
  Cl  Cl3       1.0  0.7390912875561473  0.2609086982369578  0.2609087616576934  1.0000
  Cl  Cl4       1.0  0.26090876573788246  0.7390912123811173  0.7390912904235406  1.0000
  Cl  Cl5       1.0  0.26090875579541245  0.7390912939852413  0.2609087342937267  1.0000
  Cl  Cl6       1.0  0.7390912400797135  0.2609087677782458  0.7390912450234497  1.0000
