data_image0
_chemical_formula_structural       Fe2SeF6
_chemical_formula_sum              "Fe2 Se1 F6"
_cell_length_a       4.593124358053309
_cell_length_b       4.593123711803642
_cell_length_c       4.5931244943601985
_cell_angle_alpha    59.999990069413414
_cell_angle_beta     59.99999244980967
_cell_angle_gamma    59.99998439335221

_space_group_name_H-M_alt    "P 1"
_space_group_IT_number       1

loop_
  _space_group_symop_operation_xyz
  'x, y, z'

loop_
  _atom_site_type_symbol
  _atom_site_label
  _atom_site_symmetry_multiplicity
  _atom_site_fract_x
  _atom_site_fract_y
  _atom_site_fract_z
  _atom_site_occupancy
  Fe  Fe1       1.0  0.24999998175437582  0.2499997351551157  0.2500003154026036  1.0000
  Fe  Fe2       1.0  0.7500001661745029  0.7500000134073281  0.7500000159421599  1.0000
  Se  Se1       1.0  0.9999998935025174  0.999999784015516  1.7865833318253703e-07  1.0000
  F   F1        1.0  0.2898469510311147  0.2898467443104716  0.7101526943278207  1.0000
  F   F2        1.0  0.7101529649450874  0.7101533908909068  0.2898471307718742  1.0000
  F   F3        1.0  0.7101538965492273  0.28984670504065263  0.2898468521231746  1.0000
  F   F4        1.0  0.28984610109422004  0.7101533661653153  0.710152909711421  1.0000
  F   F5        1.0  0.289847263491192  0.7101531602108997  0.2898462581280488  1.0000
  F   F6        1.0  0.7101527124630987  0.28984708164947987  0.7101535859799533  1.0000
