data_image0
_chemical_formula_structural       Fe2SrBr6
_chemical_formula_sum              "Fe2 Sr1 Br6"
_cell_length_a       7.2181837203074934
_cell_length_b       7.2181837967505755
_cell_length_c       7.218183750073096
_cell_angle_alpha    59.9999970754473
_cell_angle_beta     59.9999992663717
_cell_angle_gamma    59.99999805429647

_space_group_name_H-M_alt    "P 1"
_space_group_IT_number       1

loop_
  _space_group_symop_operation_xyz
  'x, y, z'

loop_
  _atom_site_type_symbol
  _atom_site_label
  _atom_site_symmetry_multiplicity
  _atom_site_fract_x
  _atom_site_fract_y
  _atom_site_fract_z
  _atom_site_occupancy
  Fe  Fe1       1.0  0.2500000544309985  0.24999988525442823  0.24999997114199107  1.0000
  Fe  Fe2       1.0  0.750000010555106  0.7500000035969059  0.7500000943415014  1.0000
  Sr  Sr1       1.0  0.9999999788655549  0.9999999338267721  7.136163930533936e-08  1.0000
  Br  Br1       1.0  0.27729378542499983  0.27729386770985315  0.7227061461983068  1.0000
  Br  Br2       1.0  0.7227061846734734  0.7227062434156576  0.2772937683123346  1.0000
  Br  Br3       1.0  0.7227060762107036  0.27729392332524583  0.2772938740438715  1.0000
  Br  Br4       1.0  0.27729391340871296  0.7227061148400392  0.7227060907380437  1.0000
  Br  Br5       1.0  0.2772938653962501  0.722706151739679  0.2772938622310803  1.0000
  Br  Br6       1.0  0.7227061221549114  0.27729388303210684  0.7227061177502224  1.0000
