data_image0
_chemical_formula_structural       Fe2SiO6
_chemical_formula_sum              "Fe2 Si1 O6"
_cell_length_a       4.375944668465761
_cell_length_b       4.2616626465679905
_cell_length_c       4.238476575025188
_cell_angle_alpha    60.572119506442704
_cell_angle_beta     59.63141656162509
_cell_angle_gamma    60.65737285318351

_space_group_name_H-M_alt    "P 1"
_space_group_IT_number       1

loop_
  _space_group_symop_operation_xyz
  'x, y, z'

loop_
  _atom_site_type_symbol
  _atom_site_label
  _atom_site_symmetry_multiplicity
  _atom_site_fract_x
  _atom_site_fract_y
  _atom_site_fract_z
  _atom_site_occupancy
  Fe  Fe1       1.0  0.06835960739135023  0.4428044070523536  0.2634049331283486  1.0000
  Fe  Fe2       1.0  0.5700951717269674  0.9506177592937427  0.7520860164850234  1.0000
  Si  Si1       1.0  0.8150921262946518  0.20336073359101056  0.011376119485285502  1.0000
  O   O1        1.0  0.10694874259462159  0.4851062439292788  0.719816667768687  1.0000
  O   O2        1.0  0.5344663993020444  0.9114880415318366  0.29081644015327573  1.0000
  O   O3        1.0  0.5322414288033125  0.48997565064800275  0.2937815932503532  1.0000
  O   O4        1.0  0.10456533702986369  0.9039004203327453  0.7236588535951269  1.0000
  O   O5        1.0  0.10635245051466863  0.9108977320099021  0.29058588658144713  1.0000
  O   O6        1.0  0.5326715880686703  0.4866856457676852  0.7213850960986816  1.0000
