data_image0
_chemical_formula_structural       Fe2SiS6
_chemical_formula_sum              "Fe2 Si1 S6"
_cell_length_a       6.091112981641523
_cell_length_b       6.091112430969393
_cell_length_c       6.0911128115971565
_cell_angle_alpha    59.999998921458165
_cell_angle_beta     60.00000077601464
_cell_angle_gamma    60.00000004682566

_space_group_name_H-M_alt    "P 1"
_space_group_IT_number       1

loop_
  _space_group_symop_operation_xyz
  'x, y, z'

loop_
  _atom_site_type_symbol
  _atom_site_label
  _atom_site_symmetry_multiplicity
  _atom_site_fract_x
  _atom_site_fract_y
  _atom_site_fract_z
  _atom_site_occupancy
  Fe  Fe1       1.0  0.2500000629656862  0.2499999979049889  0.24999991438283858  1.0000
  Fe  Fe2       1.0  0.749999997735515  0.7500000439826658  0.7499999498595379  1.0000
  Si  Si1       1.0  5.3635219161065926e-08  4.021419182121771e-09  1.287783496773432e-07  1.0000
  S   S1        1.0  0.25443681242413824  0.25443689062422886  0.7455631760987661  1.0000
  S   S2        1.0  0.7455631668369143  0.7455632135953757  0.2544368257531287  1.0000
  S   S3        1.0  0.7455632783678215  0.25443666536144666  0.2544368935581151  1.0000
  S   S4        1.0  0.25443696273846345  0.7455630286737162  0.745563082317477  1.0000
  S   S5        1.0  0.2544367019818269  0.7455632501061068  0.2544367655400056  1.0000
  S   S6        1.0  0.7455629712643894  0.2544368963383588  0.7455632155254169  1.0000
