data_image0
_chemical_formula_structural       Fe2SF6
_chemical_formula_sum              "Fe2 S1 F6"
_cell_length_a       3.604100072128753
_cell_length_b       3.640605250759117
_cell_length_c       4.460725383436371
_cell_angle_alpha    59.51578978659284
_cell_angle_beta     61.57359168209738
_cell_angle_gamma    62.42369207417313

_space_group_name_H-M_alt    "P 1"
_space_group_IT_number       1

loop_
  _space_group_symop_operation_xyz
  'x, y, z'

loop_
  _atom_site_type_symbol
  _atom_site_label
  _atom_site_symmetry_multiplicity
  _atom_site_fract_x
  _atom_site_fract_y
  _atom_site_fract_z
  _atom_site_occupancy
  Fe  Fe1       1.0  0.2516820103507441  0.4522957471771143  0.26628789300113026  1.0000
  Fe  Fe2       1.0  0.008040416037973896  0.6354068465850033  0.659775080354307  1.0000
  S   S1        1.0  0.9381214005518381  0.9669258013010906  0.0332929959228598  1.0000
  F   F1        1.0  0.10448548251142661  0.4047780187234506  0.6978735287923713  1.0000
  F   F2        1.0  0.8529218717982229  0.5589400286990703  0.3397132768761236  1.0000
  F   F3        1.0  0.5328667364348194  0.4057070248947284  0.17997225284414034  1.0000
  F   F4        1.0  0.36461550671412707  0.6217336621633555  0.81700499933592  1.0000
  F   F5        1.0  0.18586052509591655  0.9699926886314847  0.2575792349578777  1.0000
  F   F6        1.0  0.7475569995578065  0.0003849936052754532  0.759200713692127  1.0000
