data_image0
_chemical_formula_structural       Fe2SnF6
_chemical_formula_sum              "Fe2 Sn1 F6"
_cell_length_a       5.840891992060747
_cell_length_b       5.840891438772289
_cell_length_c       5.840891965944462
_cell_angle_alpha    60.00000111561631
_cell_angle_beta     59.99999977344641
_cell_angle_gamma    60.000000622300966

_space_group_name_H-M_alt    "P 1"
_space_group_IT_number       1

loop_
  _space_group_symop_operation_xyz
  'x, y, z'

loop_
  _atom_site_type_symbol
  _atom_site_label
  _atom_site_symmetry_multiplicity
  _atom_site_fract_x
  _atom_site_fract_y
  _atom_site_fract_z
  _atom_site_occupancy
  Fe  Fe1       1.0  0.25000024347081423  0.2500006239464692  0.2499993862084606  1.0000
  Fe  Fe2       1.0  0.7499999131077383  0.7499992885254054  0.7500004119323874  1.0000
  Sn  Sn1       1.0  3.0931851368879994e-08  2.0968461291917426e-09  0.9999999783494494  1.0000
  F   F1        1.0  0.2428644927203373  0.24286468104435716  0.7571355336487449  1.0000
  F   F2        1.0  0.7571354880488493  0.7571353970783449  0.24286454521420975  1.0000
  F   F3        1.0  0.7571352181830797  0.24286481684761654  0.24286439030994153  1.0000
  F   F4        1.0  0.24286472426739264  0.7571351627233247  0.7571355943418564  1.0000
  F   F5        1.0  0.2428646767262988  0.7571353645451381  0.2428645329898829  1.0000
  F   F6        1.0  0.7571351917179259  0.24286469470594865  0.7571355892144852  1.0000
