data_image0
_chemical_formula_structural       Fe2SeI6
_chemical_formula_sum              "Fe2 Se1 I6"
_cell_length_a       7.610367024321122
_cell_length_b       7.610366979238621
_cell_length_c       7.610366944504328
_cell_angle_alpha    60.00000059374307
_cell_angle_beta     60.000000509610054
_cell_angle_gamma    59.99999994636143

_space_group_name_H-M_alt    "P 1"
_space_group_IT_number       1

loop_
  _space_group_symop_operation_xyz
  'x, y, z'

loop_
  _atom_site_type_symbol
  _atom_site_label
  _atom_site_symmetry_multiplicity
  _atom_site_fract_x
  _atom_site_fract_y
  _atom_site_fract_z
  _atom_site_occupancy
  Fe  Fe1       1.0  0.24999993304305243  0.24999999305996906  0.2500000102025163  1.0000
  Fe  Fe2       1.0  0.7500000676391259  0.7500000612547766  0.749999911817005  1.0000
  Se  Se1       1.0  2.590147255189002e-09  0.9999999967813776  1.6282346344529167e-09  1.0000
  I   I1        1.0  0.263867490775535  0.2638674634433004  0.7361325353320403  1.0000
  I   I2        1.0  0.73613251602311  0.7361325087965753  0.263867491680534  1.0000
  I   I3        1.0  0.7361325268042758  0.2638674702524079  0.2638675240232435  1.0000
  I   I4        1.0  0.2638674905390344  0.7361324794571112  0.7361325260641386  1.0000
  I   I5        1.0  0.26386746169054176  0.7361325272656265  0.26386752250320294  1.0000
  I   I6        1.0  0.7361325076811294  0.26386749808151827  0.7361324874712445  1.0000
