data_image0
_chemical_formula_structural       Fe2TiI6
_chemical_formula_sum              "Fe2 Ti1 I6"
_cell_length_a       7.600590368918461
_cell_length_b       7.6005901756283185
_cell_length_c       7.600590379281674
_cell_angle_alpha    59.99999942828631
_cell_angle_beta     60.00000176889408
_cell_angle_gamma    59.999999118530475

_space_group_name_H-M_alt    "P 1"
_space_group_IT_number       1

loop_
  _space_group_symop_operation_xyz
  'x, y, z'

loop_
  _atom_site_type_symbol
  _atom_site_label
  _atom_site_symmetry_multiplicity
  _atom_site_fract_x
  _atom_site_fract_y
  _atom_site_fract_z
  _atom_site_occupancy
  Fe  Fe1       1.0  0.25000012582085107  0.24999992585632919  0.2500000137540129  1.0000
  Fe  Fe2       1.0  0.7499999225507182  0.7499999983282287  0.7500000346637264  1.0000
  Ti  Ti1       1.0  1.2881291226247346e-07  0.9999999371561293  0.9999997578212051  1.0000
  I   I1        1.0  0.2535535401162344  0.25355357427611236  0.7464464456616057  1.0000
  I   I2        1.0  0.7464464965306947  0.7464463805246904  0.2535535735750223  1.0000
  I   I3        1.0  0.746446483787897  0.25355348705812103  0.25355360009498185  1.0000
  I   I4        1.0  0.25355330865866327  0.7464467126726401  0.7464465635024481  1.0000
  I   I5        1.0  0.2535534758182548  0.746446503202235  0.25355352990096314  1.0000
  I   I6        1.0  0.7464465157732456  0.25355347738066875  0.746446484499768  1.0000
