data_image0
_chemical_formula_structural       Fe2TiCl6
_chemical_formula_sum              "Fe2 Ti1 Cl6"
_cell_length_a       6.549122887863387
_cell_length_b       6.54912283005958
_cell_length_c       6.549122915656185
_cell_angle_alpha    59.99999979004948
_cell_angle_beta     60.00000020893333
_cell_angle_gamma    60.00000124204287

_space_group_name_H-M_alt    "P 1"
_space_group_IT_number       1

loop_
  _space_group_symop_operation_xyz
  'x, y, z'

loop_
  _atom_site_type_symbol
  _atom_site_label
  _atom_site_symmetry_multiplicity
  _atom_site_fract_x
  _atom_site_fract_y
  _atom_site_fract_z
  _atom_site_occupancy
  Fe  Fe1       1.0  0.2499999471605043  0.2500000398791761  0.24999995750354922  1.0000
  Fe  Fe2       1.0  0.749999922213087  0.7500000467040223  0.750000045734568  1.0000
  Ti  Ti1       1.0  0.9999999721106537  0.9999999831691901  7.090857798923732e-09  1.0000
  Cl  Cl1       1.0  0.2547706227726697  0.25477059697260107  0.7452294086875689  1.0000
  Cl  Cl2       1.0  0.7452293825061747  0.7452294204172718  0.25477061463685574  1.0000
  Cl  Cl3       1.0  0.7452294502125851  0.2547705524229369  0.2547706068001793  1.0000
  Cl  Cl4       1.0  0.25477064846065267  0.7452293752026207  0.7452293704284676  1.0000
  Cl  Cl5       1.0  0.25477065366234497  0.7452293914442907  0.2547705789865031  1.0000
  Cl  Cl6       1.0  0.7452294033892046  0.2547705922839642  0.7452293971093275  1.0000
