data_image0
_chemical_formula_structural       Fe2TiBr6
_chemical_formula_sum              "Fe2 Ti1 Br6"
_cell_length_a       7.038271029979484
_cell_length_b       7.038271048529755
_cell_length_c       7.038271060698225
_cell_angle_alpha    60.00000003870601
_cell_angle_beta     59.999999935484325
_cell_angle_gamma    60.000000154812575

_space_group_name_H-M_alt    "P 1"
_space_group_IT_number       1

loop_
  _space_group_symop_operation_xyz
  'x, y, z'

loop_
  _atom_site_type_symbol
  _atom_site_label
  _atom_site_symmetry_multiplicity
  _atom_site_fract_x
  _atom_site_fract_y
  _atom_site_fract_z
  _atom_site_occupancy
  Fe  Fe1       1.0  0.2500000082215117  0.24999998441869495  0.24999999969995942  1.0000
  Fe  Fe2       1.0  0.7499999970386999  0.7499999967591292  0.7500000025277016  1.0000
  Ti  Ti1       1.0  0.9999999850355387  1.0440730629793051e-08  1.0786686233596098e-08  1.0000
  Br  Br1       1.0  0.2518189153012917  0.25181891670201706  0.7481810842336328  1.0000
  Br  Br2       1.0  0.7481810751764223  0.7481810940578769  0.25181891485665225  1.0000
  Br  Br3       1.0  0.7481810839261233  0.25181891534441536  0.2518189170885547  1.0000
  Br  Br4       1.0  0.25181892875802214  0.748181078014261  0.7481810682326958  1.0000
  Br  Br5       1.0  0.2518189289690384  0.7481810811046913  0.25181892311354137  1.0000
  Br  Br6       1.0  0.7481810791743013  0.25181892095459396  0.7481810800190563  1.0000
