data_image0
_chemical_formula_structural       Fe2VCl6
_chemical_formula_sum              "Fe2 V1 Cl6"
_cell_length_a       6.514674216092395
_cell_length_b       6.51467313635488
_cell_length_c       6.514673523467688
_cell_angle_alpha    60.00000219030268
_cell_angle_beta     60.00000443326626
_cell_angle_gamma    60.00000349416009

_space_group_name_H-M_alt    "P 1"
_space_group_IT_number       1

loop_
  _space_group_symop_operation_xyz
  'x, y, z'

loop_
  _atom_site_type_symbol
  _atom_site_label
  _atom_site_symmetry_multiplicity
  _atom_site_fract_x
  _atom_site_fract_y
  _atom_site_fract_z
  _atom_site_occupancy
  Fe  Fe1       1.0  0.25000012570595576  0.2500000952886911  0.2499997453203074  1.0000
  Fe  Fe2       1.0  0.7499999966196169  0.7499998215112578  0.7499998978468666  1.0000
  V   V1        1.0  0.9999999780147406  0.9999999755602732  4.623743722723157e-08  1.0000
  Cl  Cl1       1.0  0.25132250375711934  0.25132277638807854  0.74867747494397  1.0000
  Cl  Cl2       1.0  0.7486774082875538  0.7486772926901772  0.25132266232839395  1.0000
  Cl  Cl3       1.0  0.7486772538926653  0.2513226286709106  0.25132272862161453  1.0000
  Cl  Cl4       1.0  0.25132277322071556  0.7486773238486522  0.7486773572058637  1.0000
  Cl  Cl5       1.0  0.2513226416402877  0.7486773698181366  0.2513227070511688  1.0000
  Cl  Cl6       1.0  0.748677308556828  0.25132271241997206  0.7486773631201469  1.0000
