data_image0
_chemical_formula_structural       Fe2VI6
_chemical_formula_sum              "Fe2 V1 I6"
_cell_length_a       7.433549679321438
_cell_length_b       7.433549710188145
_cell_length_c       7.4335500054921235
_cell_angle_alpha    59.99999895582976
_cell_angle_beta     59.9999996224962
_cell_angle_gamma    60.000000542931325

_space_group_name_H-M_alt    "P 1"
_space_group_IT_number       1

loop_
  _space_group_symop_operation_xyz
  'x, y, z'

loop_
  _atom_site_type_symbol
  _atom_site_label
  _atom_site_symmetry_multiplicity
  _atom_site_fract_x
  _atom_site_fract_y
  _atom_site_fract_z
  _atom_site_occupancy
  Fe  Fe1       1.0  0.2500000151063615  0.2500001392113564  0.24999991828464246  1.0000
  Fe  Fe2       1.0  0.7500000366506414  0.7499999217092108  0.7499998591728277  1.0000
  V   V1        1.0  1.70089388509361e-08  0.9999999769337277  1.3790684952231851e-08  1.0000
  I   I1        1.0  0.2545434405616563  0.25454348763050677  0.745456557929197  1.0000
  I   I2        1.0  0.745456517382443  0.7454565238623322  0.25454351042470796  1.0000
  I   I3        1.0  0.7454565513433581  0.2545434229239486  0.25454352770020977  1.0000
  I   I4        1.0  0.2545434738988446  0.7454565078369376  0.7454565594778905  1.0000
  I   I5        1.0  0.25454343304003463  0.7454565445738992  0.2545434934483536  1.0000
  I   I6        1.0  0.7454565096369438  0.2545434800996669  0.7454565611509733  1.0000
