data_image0
_chemical_formula_structural       Fe2VBr6
_chemical_formula_sum              "Fe2 V1 Br6"
_cell_length_a       6.919178535523443
_cell_length_b       6.919178463943929
_cell_length_c       6.919178591236547
_cell_angle_alpha    59.99999910941409
_cell_angle_beta     59.999999257355135
_cell_angle_gamma    60.00000057636275

_space_group_name_H-M_alt    "P 1"
_space_group_IT_number       1

loop_
  _space_group_symop_operation_xyz
  'x, y, z'

loop_
  _atom_site_type_symbol
  _atom_site_label
  _atom_site_symmetry_multiplicity
  _atom_site_fract_x
  _atom_site_fract_y
  _atom_site_fract_z
  _atom_site_occupancy
  Fe  Fe1       1.0  0.2500000038324601  0.2500000062325205  0.25000002596374477  1.0000
  Fe  Fe2       1.0  0.750000013874846  0.7499999815260352  0.7500000273611265  1.0000
  V   V1        1.0  0.9999999405956295  2.301094390086063e-08  7.456178557114458e-08  1.0000
  Br  Br1       1.0  0.25197078106870685  0.2519708611298018  0.7480291816137937  1.0000
  Br  Br2       1.0  0.7480292170839371  0.7480291602601346  0.2519707721761898  1.0000
  Br  Br3       1.0  0.7480291784524445  0.2519708193177824  0.25197082092342615  1.0000
  Br  Br4       1.0  0.25197086754128706  0.7480291436597561  0.7480291106923055  1.0000
  Br  Br5       1.0  0.2519708554465824  0.748029162053589  0.2519708406919358  1.0000
  Br  Br6       1.0  0.7480291447798306  0.2519708380954754  0.7480291472509896  1.0000
