data_image0
_chemical_formula_structural       Fe2VF6
_chemical_formula_sum              "Fe2 V1 F6"
_cell_length_a       5.45418489421789
_cell_length_b       5.454184799752648
_cell_length_c       5.454184746048929
_cell_angle_alpha    59.999999624784785
_cell_angle_beta     60.00000142871366
_cell_angle_gamma    59.99999967093154

_space_group_name_H-M_alt    "P 1"
_space_group_IT_number       1

loop_
  _space_group_symop_operation_xyz
  'x, y, z'

loop_
  _atom_site_type_symbol
  _atom_site_label
  _atom_site_symmetry_multiplicity
  _atom_site_fract_x
  _atom_site_fract_y
  _atom_site_fract_z
  _atom_site_occupancy
  Fe  Fe1       1.0  0.24999997339101007  0.25000015629377037  0.24999994161408057  1.0000
  Fe  Fe2       1.0  0.7499999564682753  0.7500001567548513  0.7500000745985801  1.0000
  V   V1        1.0  3.9993696468045305e-09  0.9999999752993453  0.999999982848824  1.0000
  F   F1        1.0  0.2489519846901852  0.24895187124111917  0.7510480247674688  1.0000
  F   F2        1.0  0.7510480808391924  0.7510481364175877  0.2489519021269203  1.0000
  F   F3        1.0  0.7510480856656793  0.24895184401709836  0.24895182711546712  1.0000
  F   F4        1.0  0.24895182117001866  0.7510480109466504  0.7510482738077867  1.0000
  F   F5        1.0  0.2489519233820519  0.7510480900439183  0.2489518447436575  1.0000
  F   F6        1.0  0.7510481468328802  0.24895178288394332  0.7510481361726502  1.0000
