data_image0
_chemical_formula_structural       Fe2VF6
_chemical_formula_sum              "Fe2 V1 F6"
_cell_length_a       5.4539406100642
_cell_length_b       5.4539419987439715
_cell_length_c       5.453939076347786
_cell_angle_alpha    60.000011656625986
_cell_angle_beta     60.000019165912626
_cell_angle_gamma    60.00001506461349

_space_group_name_H-M_alt    "P 1"
_space_group_IT_number       1

loop_
  _space_group_symop_operation_xyz
  'x, y, z'

loop_
  _atom_site_type_symbol
  _atom_site_label
  _atom_site_symmetry_multiplicity
  _atom_site_fract_x
  _atom_site_fract_y
  _atom_site_fract_z
  _atom_site_occupancy
  Fe  Fe1       1.0  0.24999863402880107  0.2499988850377742  0.24999908806474444  1.0000
  Fe  Fe2       1.0  0.749999906980455  0.7500034727962566  0.749995318290971  1.0000
  V   V1        1.0  1.5762923524738203e-07  2.829473696066209e-07  0.9999994111707259  1.0000
  F   F1        1.0  0.24896319940121212  0.24895843241459756  0.7510437977476323  1.0000
  F   F2        1.0  0.751038328966273  0.7510408893488718  0.24895902139714765  1.0000
  F   F3        1.0  0.7510416704001482  0.2489556467243344  0.24896527482333547  1.0000
  F   F4        1.0  0.2489605796753955  0.7510408747589458  0.7510377346799838  1.0000
  F   F5        1.0  0.24895797391470284  0.751037649416321  0.24896300109259717  1.0000
  F   F6        1.0  0.751039817923999  0.2489639516452046  0.7510384747701653  1.0000
