data_image0
_chemical_formula_structural       Fe2VI6
_chemical_formula_sum              "Fe2 V1 I6"
_cell_length_a       7.43227069220478
_cell_length_b       7.432270648213122
_cell_length_c       7.432270907448489
_cell_angle_alpha    60.00000122836596
_cell_angle_beta     60.000001103803264
_cell_angle_gamma    59.99999893710442

_space_group_name_H-M_alt    "P 1"
_space_group_IT_number       1

loop_
  _space_group_symop_operation_xyz
  'x, y, z'

loop_
  _atom_site_type_symbol
  _atom_site_label
  _atom_site_symmetry_multiplicity
  _atom_site_fract_x
  _atom_site_fract_y
  _atom_site_fract_z
  _atom_site_occupancy
  Fe  Fe1       1.0  0.25000003673885807  0.2500001890096581  0.24999983716521654  1.0000
  Fe  Fe2       1.0  0.749999824031138  0.7499998502036093  0.750000023764903  1.0000
  V   V1        1.0  0.9999999811841117  0.999999981873381  0.9999999767612556  1.0000
  I   I1        1.0  0.25464364111923177  0.25464361860106965  0.7453563911448281  1.0000
  I   I2        1.0  0.7453563554925317  0.7453563579929727  0.25464372783497047  1.0000
  I   I3        1.0  0.7453563655492268  0.25464362550109015  0.25464367129437465  1.0000
  I   I4        1.0  0.25464377401274785  0.7453563230790835  0.7453563458162894  1.0000
  I   I5        1.0  0.2546436909886626  0.7453563597910726  0.2546436278174184  1.0000
  I   I6        1.0  0.7453563326298497  0.254643694253066  0.7453563931875106  1.0000
