data_image0
_chemical_formula_structural       Fe2YBr6
_chemical_formula_sum              "Fe2 Y1 Br6"
_cell_length_a       7.170206560064911
_cell_length_b       7.170206595193309
_cell_length_c       7.170206604123845
_cell_angle_alpha    60.000000185460685
_cell_angle_beta     60.00000000623499
_cell_angle_gamma    60.00000102364106

_space_group_name_H-M_alt    "P 1"
_space_group_IT_number       1

loop_
  _space_group_symop_operation_xyz
  'x, y, z'

loop_
  _atom_site_type_symbol
  _atom_site_label
  _atom_site_symmetry_multiplicity
  _atom_site_fract_x
  _atom_site_fract_y
  _atom_site_fract_z
  _atom_site_occupancy
  Fe  Fe1       1.0  0.25000006190554425  0.24999993308528853  0.2500000016464295  1.0000
  Fe  Fe2       1.0  0.7499999870466351  0.7499999991038698  0.7499999541425267  1.0000
  Y   Y1        1.0  0.9999999911022558  0.9999999880432816  0.9999999839286922  1.0000
  Br  Br1       1.0  0.26821228345625764  0.26821224008670863  0.7317877496947671  1.0000
  Br  Br2       1.0  0.7317876859827184  0.7317877518860405  0.2682123024279124  1.0000
  Br  Br3       1.0  0.7317876908496119  0.26821231758386205  0.26821234247269193  1.0000
  Br  Br4       1.0  0.26821234053310217  0.7317876914699137  0.7317876729269253  1.0000
  Br  Br5       1.0  0.2682122984133247  0.7317877230996975  0.2682123067051798  1.0000
  Br  Br6       1.0  0.7317876661441267  0.2682123559862849  0.7317876791977663  1.0000
