data_image0
_chemical_formula_structural       Fe2YF6
_chemical_formula_sum              "Fe2 Y1 F6"
_cell_length_a       5.774041463127765
_cell_length_b       5.774041292902217
_cell_length_c       5.774041295619913
_cell_angle_alpha    59.99999764113818
_cell_angle_beta     59.99999490124608
_cell_angle_gamma    59.99999839809658

_space_group_name_H-M_alt    "P 1"
_space_group_IT_number       1

loop_
  _space_group_symop_operation_xyz
  'x, y, z'

loop_
  _atom_site_type_symbol
  _atom_site_label
  _atom_site_symmetry_multiplicity
  _atom_site_fract_x
  _atom_site_fract_y
  _atom_site_fract_z
  _atom_site_occupancy
  Fe  Fe1       1.0  0.25000010364820174  0.24999998183045538  0.25000007512146244  1.0000
  Fe  Fe2       1.0  0.7500000159218659  0.7499999306435052  0.7500004391839352  1.0000
  Y   Y1        1.0  6.306518665728526e-08  0.9999999787887757  0.9999999600222347  1.0000
  F   F1        1.0  0.2612642226725618  0.2612644111973812  0.7387355910312827  1.0000
  F   F2        1.0  0.7387356654008675  0.7387356858142392  0.26126397169996873  1.0000
  F   F3        1.0  0.7387355981732591  0.26126457611024406  0.26126419604187956  1.0000
  F   F4        1.0  0.26126424392525044  0.7387354848422917  0.7387357904538991  1.0000
  F   F5        1.0  0.26126446527601327  0.738735724160771  0.26126422092198964  1.0000
  F   F6        1.0  0.7387356338107163  0.2612642137666616  0.7387357453532308  1.0000
