data_image0
_chemical_formula_structural       Fe2YI6
_chemical_formula_sum              "Fe2 Y1 I6"
_cell_length_a       7.8488841766427075
_cell_length_b       7.8488840401581434
_cell_length_c       7.848883941689218
_cell_angle_alpha    60.00000007099196
_cell_angle_beta     59.9999993944199
_cell_angle_gamma    59.999999438452036

_space_group_name_H-M_alt    "P 1"
_space_group_IT_number       1

loop_
  _space_group_symop_operation_xyz
  'x, y, z'

loop_
  _atom_site_type_symbol
  _atom_site_label
  _atom_site_symmetry_multiplicity
  _atom_site_fract_x
  _atom_site_fract_y
  _atom_site_fract_z
  _atom_site_occupancy
  Fe  Fe1       1.0  0.24999996903891647  0.2500000264568274  0.2499999589834076  1.0000
  Fe  Fe2       1.0  0.7500000087623235  0.7499999951085377  0.7500000109538538  1.0000
  Y   Y1        1.0  0.9999999447204089  0.9999999672314662  8.224605781779045e-08  1.0000
  I   I1        1.0  0.26700712750071964  0.2670071384788095  0.7329928475918412  1.0000
  I   I2        1.0  0.7329929185528736  0.7329929298987469  0.26700710176107517  1.0000
  I   I3        1.0  0.7329928758868972  0.2670071025520999  0.2670070986532517  1.0000
  I   I4        1.0  0.26700712087631995  0.7329929018487951  0.7329928627408571  1.0000
  I   I5        1.0  0.2670071856170351  0.7329927963088545  0.26700718668069356  1.0000
  I   I6        1.0  0.7329928466632517  0.26700714567578515  0.7329928518663321  1.0000
