data_image0
_chemical_formula_structural       Fe2YCl6
_chemical_formula_sum              "Fe2 Y1 Cl6"
_cell_length_a       6.695824692915075
_cell_length_b       6.695824657323769
_cell_length_c       6.695824597310658
_cell_angle_alpha    59.99999920488999
_cell_angle_beta     59.99999815766899
_cell_angle_gamma    60.00000006503221

_space_group_name_H-M_alt    "P 1"
_space_group_IT_number       1

loop_
  _space_group_symop_operation_xyz
  'x, y, z'

loop_
  _atom_site_type_symbol
  _atom_site_label
  _atom_site_symmetry_multiplicity
  _atom_site_fract_x
  _atom_site_fract_y
  _atom_site_fract_z
  _atom_site_occupancy
  Fe  Fe1       1.0  0.24999997395883816  0.24999999345126378  0.2500000055796935  1.0000
  Fe  Fe2       1.0  0.7499999676013651  0.7500000242526064  0.7500001377021983  1.0000
  Y   Y1        1.0  4.194714002526629e-08  0.9999999103732523  3.280061202951756e-08  1.0000
  Cl  Cl1       1.0  0.26811796499939805  0.26811797673874654  0.7318820465259813  1.0000
  Cl  Cl2       1.0  0.7318820848910067  0.731882057427181  0.2681179133888681  1.0000
  Cl  Cl3       1.0  0.7318820964957214  0.2681179546517663  0.268117905939875  1.0000
  Cl  Cl4       1.0  0.2681179479432279  0.7318820337862285  0.7318820407345002  1.0000
  Cl  Cl5       1.0  0.268117947538299  0.7318820519308764  0.2681179405461163  1.0000
  Cl  Cl6       1.0  0.7318819696516267  0.2681180078426924  0.7318819728527958  1.0000
