data_image0
_chemical_formula_structural       Fe2ZnI6
_chemical_formula_sum              "Fe2 Zn1 I6"
_cell_length_a       7.45955350626726
_cell_length_b       7.459553554163702
_cell_length_c       7.459553369741506
_cell_angle_alpha    60.000000913637955
_cell_angle_beta     60.000000025465425
_cell_angle_gamma    59.99999936328021

_space_group_name_H-M_alt    "P 1"
_space_group_IT_number       1

loop_
  _space_group_symop_operation_xyz
  'x, y, z'

loop_
  _atom_site_type_symbol
  _atom_site_label
  _atom_site_symmetry_multiplicity
  _atom_site_fract_x
  _atom_site_fract_y
  _atom_site_fract_z
  _atom_site_occupancy
  Fe  Fe1       1.0  0.25000000642686393  0.2500000404103328  0.2500000165711445  1.0000
  Fe  Fe2       1.0  0.7500000323698061  0.7500000030179846  0.749999942748356  1.0000
  Zn  Zn1       1.0  3.954332698734462e-09  9.030160695230927e-08  0.999999897908954  1.0000
  I   I1        1.0  0.259474574251795  0.25947457684745273  0.7405254262167371  1.0000
  I   I2        1.0  0.7405253660878893  0.7405253532933953  0.25947466980793654  1.0000
  I   I3        1.0  0.7405253466643588  0.25947460725589444  0.25947465461365976  1.0000
  I   I4        1.0  0.25947459462765954  0.7405254082610185  0.7405253794789348  1.0000
  I   I5        1.0  0.25947464764113  0.7405253180245395  0.2594746511977533  1.0000
  I   I6        1.0  0.7405254125317782  0.25947460554891727  0.7405253707666866  1.0000
