data_image0
_chemical_formula_structural       Fe2ZnCl6
_chemical_formula_sum              "Fe2 Zn1 Cl6"
_cell_length_a       6.385480616161518
_cell_length_b       6.385480644000885
_cell_length_c       6.385480614921628
_cell_angle_alpha    60.00000011945774
_cell_angle_beta     60.000000315041824
_cell_angle_gamma    59.999999881839614

_space_group_name_H-M_alt    "P 1"
_space_group_IT_number       1

loop_
  _space_group_symop_operation_xyz
  'x, y, z'

loop_
  _atom_site_type_symbol
  _atom_site_label
  _atom_site_symmetry_multiplicity
  _atom_site_fract_x
  _atom_site_fract_y
  _atom_site_fract_z
  _atom_site_occupancy
  Fe  Fe1       1.0  0.24999994288721075  0.250000004363187  0.25000008524057943  1.0000
  Fe  Fe2       1.0  0.749999976379983  0.7499998845825443  0.7500001631152715  1.0000
  Zn  Zn1       1.0  0.9999999731854285  1.534412130060722e-08  7.777365526427624e-08  1.0000
  Cl  Cl1       1.0  0.25779423471108276  0.2577942456376861  0.7422057595953785  1.0000
  Cl  Cl2       1.0  0.7422057331049577  0.7422057526349098  0.2577941968394316  1.0000
  Cl  Cl3       1.0  0.742205806340725  0.2577943114751161  0.2577941734257369  1.0000
  Cl  Cl4       1.0  0.2577942927149726  0.7422057270757979  0.7422056815895576  1.0000
  Cl  Cl5       1.0  0.25779428044228375  0.7422057105498345  0.25779424185780503  1.0000
  Cl  Cl6       1.0  0.7422057664823337  0.2577943433452009  0.7422056237207046  1.0000
