data_image0
_chemical_formula_structural       Fe2ZnBr6
_chemical_formula_sum              "Fe2 Zn1 Br6"
_cell_length_a       6.843523121275078
_cell_length_b       6.8435229820916526
_cell_length_c       6.843523112189137
_cell_angle_alpha    60.00000034662933
_cell_angle_beta     60.00000006113144
_cell_angle_gamma    60.000001114523634

_space_group_name_H-M_alt    "P 1"
_space_group_IT_number       1

loop_
  _space_group_symop_operation_xyz
  'x, y, z'

loop_
  _atom_site_type_symbol
  _atom_site_label
  _atom_site_symmetry_multiplicity
  _atom_site_fract_x
  _atom_site_fract_y
  _atom_site_fract_z
  _atom_site_occupancy
  Fe  Fe1       1.0  0.25000008076516544  0.24999991466442117  0.250000004731459  1.0000
  Fe  Fe2       1.0  0.7500000577813727  0.7499999229573504  0.7499999614424415  1.0000
  Zn  Zn1       1.0  0.9999999964207185  1.0737845052455516e-08  0.9999999686572408  1.0000
  Br  Br1       1.0  0.2599820394370282  0.2599820755257903  0.7400179514553504  1.0000
  Br  Br2       1.0  0.7400179160779731  0.7400179517979149  0.2599820829839003  1.0000
  Br  Br3       1.0  0.7400179042382887  0.25998209052203247  0.25998204381611667  1.0000
  Br  Br4       1.0  0.25998203247670393  0.7400180083873081  0.7400179350056082  1.0000
  Br  Br5       1.0  0.2599820248475761  0.7400179601587477  0.25998208139431694  1.0000
  Br  Br6       1.0  0.7400179511196026  0.2599820564271127  0.7400179686450665  1.0000
