data_image0
_chemical_formula_structural       Ge2BeI6
_chemical_formula_sum              "Ge2 Be1 I6"
_cell_length_a       7.348664301878194
_cell_length_b       7.348664242844094
_cell_length_c       7.348664303174844
_cell_angle_alpha    59.9999992025741
_cell_angle_beta     59.99999980768142
_cell_angle_gamma    60.00000038260131

_space_group_name_H-M_alt    "P 1"
_space_group_IT_number       1

loop_
  _space_group_symop_operation_xyz
  'x, y, z'

loop_
  _atom_site_type_symbol
  _atom_site_label
  _atom_site_symmetry_multiplicity
  _atom_site_fract_x
  _atom_site_fract_y
  _atom_site_fract_z
  _atom_site_occupancy
  Ge  Ge1       1.0  0.24999999928995603  0.249999977082803  0.25000002113807784  1.0000
  Ge  Ge2       1.0  0.7500000146613096  0.7499999845803282  0.7499998745831121  1.0000
  Be  Be1       1.0  9.204501867800775e-10  6.666489945059088e-09  0.9999999689906997  1.0000
  I   I1        1.0  0.24758565372361743  0.24758570181719788  0.7524143272686573  1.0000
  I   I2        1.0  0.7524143454812869  0.7524143465102998  0.24758565632555715  1.0000
  I   I3        1.0  0.752414311052421  0.24758566022714437  0.24758568956971158  1.0000
  I   I4        1.0  0.24758565379072103  0.7524143497680365  0.7524144038542844  1.0000
  I   I5        1.0  0.24758566202999857  0.752414280756897  0.24758569843890169  1.0000
  I   I6        1.0  0.7524143558890148  0.24758569257259058  0.7524143636465496  1.0000
