data_image0
_chemical_formula_structural       Ge2BeBr6
_chemical_formula_sum              "Ge2 Be1 Br6"
_cell_length_a       6.723491521562296
_cell_length_b       6.723491442475802
_cell_length_c       6.7234915173563925
_cell_angle_alpha    59.99999806788704
_cell_angle_beta     59.99999895668399
_cell_angle_gamma    59.99999924859922

_space_group_name_H-M_alt    "P 1"
_space_group_IT_number       1

loop_
  _space_group_symop_operation_xyz
  'x, y, z'

loop_
  _atom_site_type_symbol
  _atom_site_label
  _atom_site_symmetry_multiplicity
  _atom_site_fract_x
  _atom_site_fract_y
  _atom_site_fract_z
  _atom_site_occupancy
  Ge  Ge1       1.0  0.25000008824575437  0.24999978050421479  0.2500000891160154  1.0000
  Ge  Ge2       1.0  0.7499999937727277  0.7500000719704806  0.7500001313027047  1.0000
  Be  Be1       1.0  0.9999999908236173  0.9999999708545508  0.9999999611553401  1.0000
  Br  Br1       1.0  0.24666561208709173  0.24666549590177564  0.7533344548861531  1.0000
  Br  Br2       1.0  0.753334397538105  0.753334460403588  0.24666552076621479  1.0000
  Br  Br3       1.0  0.753334379323488  0.24666561930487718  0.2466655831011947  1.0000
  Br  Br4       1.0  0.24666555100302553  0.7533345027652324  0.7533343582420754  1.0000
  Br  Br5       1.0  0.2466655563410122  0.753334513352741  0.24666552037063255  1.0000
  Br  Br6       1.0  0.7533344348062991  0.2466656014310064  0.7533343942054193  1.0000
