data_image0
_chemical_formula_structural       Ge2BeCl6
_chemical_formula_sum              "Ge2 Be1 Cl6"
_cell_length_a       6.254334877558018
_cell_length_b       6.254334771553992
_cell_length_c       6.254334686061863
_cell_angle_alpha    60.00000047162663
_cell_angle_beta     60.0000006395702
_cell_angle_gamma    60.00000048090989

_space_group_name_H-M_alt    "P 1"
_space_group_IT_number       1

loop_
  _space_group_symop_operation_xyz
  'x, y, z'

loop_
  _atom_site_type_symbol
  _atom_site_label
  _atom_site_symmetry_multiplicity
  _atom_site_fract_x
  _atom_site_fract_y
  _atom_site_fract_z
  _atom_site_occupancy
  Ge  Ge1       1.0  0.2499999996732818  0.24999994631997688  0.2500000450369541  1.0000
  Ge  Ge2       1.0  0.749999968433631  0.7499999584121815  0.7499999835521414  1.0000
  Be  Be1       1.0  3.07333412016254e-08  1.958233728700481e-09  0.999999956473064  1.0000
  Cl  Cl1       1.0  0.24465631407397032  0.2446562976478728  0.7553436733289517  1.0000
  Cl  Cl2       1.0  0.7553436770069122  0.7553436932465654  0.24465632147760302  1.0000
  Cl  Cl3       1.0  0.7553436844021912  0.24465632707142415  0.24465630715243103  1.0000
  Cl  Cl4       1.0  0.24465628153841917  0.7553437558599944  0.75534371336474  1.0000
  Cl  Cl5       1.0  0.2446563088387597  0.7553437295700286  0.2446562648216293  1.0000
  Cl  Cl6       1.0  0.7553437382628622  0.244656292656148  0.7553437390720926  1.0000
