data_image0
_chemical_formula_structural       Ge2BeF6
_chemical_formula_sum              "Ge2 Be1 F6"
_cell_length_a       5.118703379352154
_cell_length_b       5.118703401310992
_cell_length_c       5.118703399581669
_cell_angle_alpha    60.00000089511524
_cell_angle_beta     60.00000182699085
_cell_angle_gamma    60.0000006614528

_space_group_name_H-M_alt    "P 1"
_space_group_IT_number       1

loop_
  _space_group_symop_operation_xyz
  'x, y, z'

loop_
  _atom_site_type_symbol
  _atom_site_label
  _atom_site_symmetry_multiplicity
  _atom_site_fract_x
  _atom_site_fract_y
  _atom_site_fract_z
  _atom_site_occupancy
  Ge  Ge1       1.0  0.25000008053167627  0.24999997343127395  0.24999994912406007  1.0000
  Ge  Ge2       1.0  0.7500000580504863  0.7499999633621658  0.7500000211521233  1.0000
  Be  Be1       1.0  2.5611864540768208e-08  0.9999999976073142  0.9999999649469742  1.0000
  F   F1        1.0  0.23954073877174545  0.23954081563755186  0.7604592319286629  1.0000
  F   F2        1.0  0.7604592079930949  0.7604592431828606  0.23954075761373514  1.0000
  F   F3        1.0  0.7604591980160026  0.23954078050277622  0.2395407831348204  1.0000
  F   F4        1.0  0.23954075435524938  0.7604592208931787  0.760459240131079  1.0000
  F   F5        1.0  0.23954075925401913  0.7604592362757118  0.23954077430926515  1.0000
  F   F6        1.0  0.7604591862128561  0.2395407722983004  0.7604592703096112  1.0000
