data_image0
_chemical_formula_structural       Ge2CoO6
_chemical_formula_sum              "Ge2 Co1 O6"
_cell_length_a       5.173537092526602
_cell_length_b       5.173537099622382
_cell_length_c       5.173537082050849
_cell_angle_alpha    59.999999628796516
_cell_angle_beta     59.99999878843709
_cell_angle_gamma    59.99999830823719

_space_group_name_H-M_alt    "P 1"
_space_group_IT_number       1

loop_
  _space_group_symop_operation_xyz
  'x, y, z'

loop_
  _atom_site_type_symbol
  _atom_site_label
  _atom_site_symmetry_multiplicity
  _atom_site_fract_x
  _atom_site_fract_y
  _atom_site_fract_z
  _atom_site_occupancy
  Ge  Ge1       1.0  0.2500001853263354  0.2500003130554708  0.24999974534870487  1.0000
  Ge  Ge2       1.0  0.750000071614322  0.7500003165596861  0.7499996117037789  1.0000
  Co  Co1       1.0  0.9999999813786299  0.9999999621227845  3.598094735217095e-08  1.0000
  O   O1        1.0  0.24370657709503374  0.24370695898008415  0.7562933288320738  1.0000
  O   O2        1.0  0.7562935459453907  0.7562927331739848  0.24370685577102322  1.0000
  O   O3        1.0  0.7562931995195582  0.24370632409492007  0.2437073261218857  1.0000
  O   O4        1.0  0.24370673894310851  0.7562935669145344  0.7562928242816087  1.0000
  O   O5        1.0  0.24370703291499424  0.756292965947122  0.24370666826967652  1.0000
  O   O6        1.0  0.7562927326751429  0.2437068611445334  0.7562936372543417  1.0000
