data_image0
_chemical_formula_structural       Ge2CO6
_chemical_formula_sum              "Ge2 C1 O6"
_cell_length_a       4.848528402687956
_cell_length_b       4.8485284081328475
_cell_length_c       4.848528507651954
_cell_angle_alpha    59.99999985767829
_cell_angle_beta     60.00000026431885
_cell_angle_gamma    60.00000088008744

_space_group_name_H-M_alt    "P 1"
_space_group_IT_number       1

loop_
  _space_group_symop_operation_xyz
  'x, y, z'

loop_
  _atom_site_type_symbol
  _atom_site_label
  _atom_site_symmetry_multiplicity
  _atom_site_fract_x
  _atom_site_fract_y
  _atom_site_fract_z
  _atom_site_occupancy
  Ge  Ge1       1.0  0.2500001181234414  0.2500000722944562  0.25000003886715205  1.0000
  Ge  Ge2       1.0  0.7500001803770701  0.7499999743860606  0.7500000381618167  1.0000
  C   C1        1.0  0.9999999853021  0.999999979791891  2.3640448534026135e-08  1.0000
  O   O1        1.0  0.22133224991015746  0.22133233980607486  0.7786676297895675  1.0000
  O   O2        1.0  0.7786676485149966  0.7786676639322059  0.22133230162650086  1.0000
  O   O3        1.0  0.7786675800045616  0.22133240032985327  0.22133220718040678  1.0000
  O   O4        1.0  0.22133232599863362  0.7786675806743052  0.7786677833757376  1.0000
  O   O5        1.0  0.22133218732396412  0.7786677586954539  0.2213323606548936  1.0000
  O   O6        1.0  0.7786677258486624  0.2213321793664736  0.7786676601625391  1.0000
