data_image0
_chemical_formula_structural       Ge2CuCl6
_chemical_formula_sum              "Ge2 Cu1 Cl6"
_cell_length_a       6.425755405772264
_cell_length_b       6.425755432401273
_cell_length_c       6.425755431245473
_cell_angle_alpha    60.0000000629183
_cell_angle_beta     59.999999673121145
_cell_angle_gamma    59.999999837827175

_space_group_name_H-M_alt    "P 1"
_space_group_IT_number       1

loop_
  _space_group_symop_operation_xyz
  'x, y, z'

loop_
  _atom_site_type_symbol
  _atom_site_label
  _atom_site_symmetry_multiplicity
  _atom_site_fract_x
  _atom_site_fract_y
  _atom_site_fract_z
  _atom_site_occupancy
  Ge  Ge1       1.0  0.2500001728319661  0.24999985406040778  0.24999998541658386  1.0000
  Ge  Ge2       1.0  0.7499999505851618  0.7500000367736304  0.7500001787637273  1.0000
  Cu  Cu1       1.0  2.8988521751487543e-08  0.9999999561621472  1.3649614469900622e-08  1.0000
  Cl  Cl1       1.0  0.2515871153604599  0.2515871585921523  0.7484128672347184  1.0000
  Cl  Cl2       1.0  0.7484128379936323  0.7484128866273673  0.25158704800522297  1.0000
  Cl  Cl3       1.0  0.7484128073028558  0.2515871399242738  0.2515871471937513  1.0000
  Cl  Cl4       1.0  0.25158713029566426  0.7484129148252137  0.7484128209585844  1.0000
  Cl  Cl5       1.0  0.25158717430576133  0.7484129312908196  0.2515870642891843  1.0000
  Cl  Cl6       1.0  0.7484127848566148  0.2515871234586678  0.7484128728501389  1.0000
