data_image0
_chemical_formula_structural       Ge2CCl6
_chemical_formula_sum              "Ge2 C1 Cl6"
_cell_length_a       6.4318717944214026
_cell_length_b       6.431871587749412
_cell_length_c       6.431871586203338
_cell_angle_alpha    59.999998763931984
_cell_angle_beta     59.999999699231275
_cell_angle_gamma    59.99999669612889

_space_group_name_H-M_alt    "P 1"
_space_group_IT_number       1

loop_
  _space_group_symop_operation_xyz
  'x, y, z'

loop_
  _atom_site_type_symbol
  _atom_site_label
  _atom_site_symmetry_multiplicity
  _atom_site_fract_x
  _atom_site_fract_y
  _atom_site_fract_z
  _atom_site_occupancy
  Ge  Ge1       1.0  0.2500000053618907  0.24999995787620066  0.24999986991905204  1.0000
  Ge  Ge2       1.0  0.7499999533939581  0.7499999916878356  0.7499999116819666  1.0000
  C   C1        1.0  0.9999999075012348  0.9999997981568  0.9999994661872406  1.0000
  Cl  Cl1       1.0  0.2491705410004379  0.24917053589705163  0.750829620465482  1.0000
  Cl  Cl2       1.0  0.7508295761536821  0.750829611701822  0.24917052863882935  1.0000
  Cl  Cl3       1.0  0.7508294213753  0.24917060995159407  0.24917062468444365  1.0000
  Cl  Cl4       1.0  0.24917034012989656  0.7508296728441535  0.750829684398132  1.0000
  Cl  Cl5       1.0  0.249170585091153  0.7508294811879702  0.2491706076922292  1.0000
  Cl  Cl6       1.0  0.7508296666779597  0.24917035412518126  0.7508296691163836  1.0000
