data_image0
_chemical_formula_structural       Ge2CS6
_chemical_formula_sum              "Ge2 C1 S6"
_cell_length_a       6.010568328460118
_cell_length_b       6.010569306582087
_cell_length_c       6.0105680917475945
_cell_angle_alpha    60.00000287606205
_cell_angle_beta     60.00000431099699
_cell_angle_gamma    60.00000089842477

_space_group_name_H-M_alt    "P 1"
_space_group_IT_number       1

loop_
  _space_group_symop_operation_xyz
  'x, y, z'

loop_
  _atom_site_type_symbol
  _atom_site_label
  _atom_site_symmetry_multiplicity
  _atom_site_fract_x
  _atom_site_fract_y
  _atom_site_fract_z
  _atom_site_occupancy
  Ge  Ge1       1.0  0.24999980904167696  0.24999964527420365  0.25000027534138125  1.0000
  Ge  Ge2       1.0  0.7499992885475069  0.7500003601413703  0.7499995442787631  1.0000
  C   C1        1.0  2.2007615729613098e-07  0.9999999103432958  8.45265432593382e-08  1.0000
  S   S1        1.0  0.2271225590894224  0.2271224094160756  0.772878009873861  1.0000
  S   S2        1.0  0.7728771139460845  0.7728773738953126  0.2271234016268647  1.0000
  S   S3        1.0  0.7728779528235071  0.2271224141310331  0.22712250436088396  1.0000
  S   S4        1.0  0.22712288298699262  0.7728776789034797  0.7728767234402655  1.0000
  S   S5        1.0  0.22712247177254305  0.7728776353228817  0.22712238988308675  1.0000
  S   S6        1.0  0.7728776547361838  0.22712257997079027  0.7728769484283627  1.0000
