data_image0
_chemical_formula_structural       Ge2CF6
_chemical_formula_sum              "Ge2 C1 F6"
_cell_length_a       5.340114591685635
_cell_length_b       5.3401150886603626
_cell_length_c       5.340114868282651
_cell_angle_alpha    60.00000401615993
_cell_angle_beta     60.000002567761186
_cell_angle_gamma    60.000005794698346

_space_group_name_H-M_alt    "P 1"
_space_group_IT_number       1

loop_
  _space_group_symop_operation_xyz
  'x, y, z'

loop_
  _atom_site_type_symbol
  _atom_site_label
  _atom_site_symmetry_multiplicity
  _atom_site_fract_x
  _atom_site_fract_y
  _atom_site_fract_z
  _atom_site_occupancy
  Ge  Ge1       1.0  0.24999972670244489  0.25000019231779863  0.2500001576784948  1.0000
  Ge  Ge2       1.0  0.7499998462350783  0.7500003430184309  0.7500000378427013  1.0000
  C   C1        1.0  0.9999996067918857  9.655551165291918e-07  0.9999982962540025  1.0000
  F   F1        1.0  0.22043119249691523  0.22043120991721984  0.7795685878212479  1.0000
  F   F2        1.0  0.7795683476727668  0.7795683598638554  0.220431442081718  1.0000
  F   F3        1.0  0.7795683024124145  0.22043171066861206  0.22043161209878648  1.0000
  F   F4        1.0  0.22043113497380556  0.7795689783307849  0.7795685706212385  1.0000
  F   F5        1.0  0.22043240403353695  0.7795677389738878  0.22043206832565737  1.0000
  F   F6        1.0  0.7795694549019894  0.22043050517573173  0.7795692383802557  1.0000
