data_image0
_chemical_formula_structural       Ge2CI6
_chemical_formula_sum              "Ge2 C1 I6"
_cell_length_a       7.319063058393069
_cell_length_b       7.319063947323032
_cell_length_c       7.3190629578042445
_cell_angle_alpha    60.0000039191468
_cell_angle_beta     60.00000325709677
_cell_angle_gamma    59.99999924592054

_space_group_name_H-M_alt    "P 1"
_space_group_IT_number       1

loop_
  _space_group_symop_operation_xyz
  'x, y, z'

loop_
  _atom_site_type_symbol
  _atom_site_label
  _atom_site_symmetry_multiplicity
  _atom_site_fract_x
  _atom_site_fract_y
  _atom_site_fract_z
  _atom_site_occupancy
  Ge  Ge1       1.0  0.25000031247385873  0.24999972642149004  0.24999958599396901  1.0000
  Ge  Ge2       1.0  0.7500000002572365  0.7500002016890951  0.7499994804770073  1.0000
  C   C1        1.0  5.96175959011802e-08  0.9999999347388542  0.9999999276755449  1.0000
  I   I1        1.0  0.2520081288826468  0.25200808103628697  0.74799197613701  1.0000
  I   I2        1.0  0.7479917985626701  0.7479919474760641  0.25200820284549885  1.0000
  I   I3        1.0  0.7479918961191362  0.2520080723463261  0.25200820588273043  1.0000
  I   I4        1.0  0.25200794194083986  0.7479919829398296  0.7479922011520419  1.0000
  I   I5        1.0  0.25200786999168134  0.747992043176592  0.2520082250520206  1.0000
  I   I6        1.0  0.7479919842112973  0.2520080204763756  0.7479921984200422  1.0000
