data_image0
_chemical_formula_structural       Ge2CrO6
_chemical_formula_sum              "Ge2 Cr1 O6"
_cell_length_a       5.257242820927769
_cell_length_b       5.257242869967341
_cell_length_c       5.257242885687314
_cell_angle_alpha    60.00000052151945
_cell_angle_beta     59.999999769345116
_cell_angle_gamma    59.99999992310347

_space_group_name_H-M_alt    "P 1"
_space_group_IT_number       1

loop_
  _space_group_symop_operation_xyz
  'x, y, z'

loop_
  _atom_site_type_symbol
  _atom_site_label
  _atom_site_symmetry_multiplicity
  _atom_site_fract_x
  _atom_site_fract_y
  _atom_site_fract_z
  _atom_site_occupancy
  Ge  Ge1       1.0  0.25000010686578783  0.2499999452459766  0.2500000643100087  1.0000
  Ge  Ge2       1.0  0.7500002136588962  0.7499999918233682  0.7500000770539305  1.0000
  Cr  Cr1       1.0  2.001120401805544e-08  2.5625967295485783e-08  0.9999999562578996  1.0000
  O   O1        1.0  0.25165016336835144  0.2516504354516299  0.7483495735812413  1.0000
  O   O2        1.0  0.7483496569291234  0.7483496646920539  0.25165035212731346  1.0000
  O   O3        1.0  0.7483497097534352  0.25165034279125237  0.25165021652300307  1.0000
  O   O4        1.0  0.2516501263413972  0.7483496967819628  0.7483497524956219  1.0000
  O   O5        1.0  0.2516503478782992  0.7483498333983752  0.25165020137566474  1.0000
  O   O6        1.0  0.7483496247054877  0.2516501129895031  0.748349814468109  1.0000
