data_image0
_chemical_formula_structural       Ge2CrS6
_chemical_formula_sum              "Ge2 Cr1 S6"
_cell_length_a       6.207595494087486
_cell_length_b       6.207595172829938
_cell_length_c       6.207595349062182
_cell_angle_alpha    59.99999854146375
_cell_angle_beta     59.999998116024145
_cell_angle_gamma    59.99999891875871

_space_group_name_H-M_alt    "P 1"
_space_group_IT_number       1

loop_
  _space_group_symop_operation_xyz
  'x, y, z'

loop_
  _atom_site_type_symbol
  _atom_site_label
  _atom_site_symmetry_multiplicity
  _atom_site_fract_x
  _atom_site_fract_y
  _atom_site_fract_z
  _atom_site_occupancy
  Ge  Ge1       1.0  0.25000004056740105  0.2500001787310847  0.24999993355859523  1.0000
  Ge  Ge2       1.0  0.75000004769979  0.7500000271649193  0.7499998070565981  1.0000
  Cr  Cr1       1.0  0.9999999636417861  5.327040628462654e-08  0.999999910997417  1.0000
  S   S1        1.0  0.2533141657389831  0.25331401644847185  0.7466858981439505  1.0000
  S   S2        1.0  0.7466859648280372  0.7466858895548718  0.25331411947319576  1.0000
  S   S3        1.0  0.7466857998369585  0.2533141423241174  0.25331416713341637  1.0000
  S   S4        1.0  0.2533140767159375  0.7466858504902576  0.7466859582492272  1.0000
  S   S5        1.0  0.25331408882434103  0.7466857142796491  0.2533143074578209  1.0000
  S   S6        1.0  0.7466858849846943  0.25331412069648396  0.7466858901000457  1.0000
