data_image0
_chemical_formula_structural       Ge2CuBr6
_chemical_formula_sum              "Ge2 Cu1 Br6"
_cell_length_a       6.8576494787384545
_cell_length_b       6.857649363256552
_cell_length_c       6.857649417573834
_cell_angle_alpha    59.99999987077328
_cell_angle_beta     60.00000038391423
_cell_angle_gamma    59.999999031227745

_space_group_name_H-M_alt    "P 1"
_space_group_IT_number       1

loop_
  _space_group_symop_operation_xyz
  'x, y, z'

loop_
  _atom_site_type_symbol
  _atom_site_label
  _atom_site_symmetry_multiplicity
  _atom_site_fract_x
  _atom_site_fract_y
  _atom_site_fract_z
  _atom_site_occupancy
  Ge  Ge1       1.0  0.25000008792478473  0.2499998869629735  0.2500001254351817  1.0000
  Ge  Ge2       1.0  0.7499999575855804  0.7500000591567456  0.7500000400791235  1.0000
  Cu  Cu1       1.0  2.9765906456328687e-09  0.9999999910702281  0.9999999475640174  1.0000
  Br  Br1       1.0  0.2515267178432348  0.25152672670943715  0.7484732712076774  1.0000
  Br  Br2       1.0  0.748473216091802  0.7484733015641832  0.25152672819736566  1.0000
  Br  Br3       1.0  0.7484732265731961  0.25152676361084536  0.25152670908319336  1.0000
  Br  Br4       1.0  0.2515267488443446  0.7484732968099531  0.7484732345500759  1.0000
  Br  Br5       1.0  0.251526735922136  0.7484732837270966  0.2515266872244085  1.0000
  Br  Br6       1.0  0.7484733066962538  0.25152669632575514  0.7484732557012814  1.0000
