data_image0
_chemical_formula_structural       Ge2CoSe6
_chemical_formula_sum              "Ge2 Co1 Se6"
_cell_length_a       6.466379278469767
_cell_length_b       6.466379341172314
_cell_length_c       6.4663792996039975
_cell_angle_alpha    60.000000263851064
_cell_angle_beta     59.99999990963107
_cell_angle_gamma    59.999999623243355

_space_group_name_H-M_alt    "P 1"
_space_group_IT_number       1

loop_
  _space_group_symop_operation_xyz
  'x, y, z'

loop_
  _atom_site_type_symbol
  _atom_site_label
  _atom_site_symmetry_multiplicity
  _atom_site_fract_x
  _atom_site_fract_y
  _atom_site_fract_z
  _atom_site_occupancy
  Ge  Ge1       1.0  0.2500000695907168  0.2499998150245339  0.2500001382692101  1.0000
  Ge  Ge2       1.0  0.7499999942435059  0.7500000511598492  0.7499999576770087  1.0000
  Co  Co1       1.0  1.228324966600487e-08  1.1364116992119359e-08  0.9999999247714372  1.0000
  Se  Se1       1.0  0.25116397232041376  0.2511639005033635  0.748836045222703  1.0000
  Se  Se2       1.0  0.7488359738711436  0.7488361418248358  0.2511639704397446  1.0000
  Se  Se3       1.0  0.7488360397654744  0.25116388721580984  0.25116394698014977  1.0000
  Se  Se4       1.0  0.2511639460364181  0.7488361380662135  0.7488360233780879  1.0000
  Se  Se5       1.0  0.2511639238645424  0.7488361453867982  0.25116388834263803  1.0000
  Se  Se6       1.0  0.7488360696929001  0.2511639101995375  0.7488361031936411  1.0000
