data_image0
_chemical_formula_structural       Ge2CuF6
_chemical_formula_sum              "Ge2 Cu1 F6"
_cell_length_a       5.301326531427747
_cell_length_b       5.301326246866773
_cell_length_c       5.301326739930166
_cell_angle_alpha    59.99999859296693
_cell_angle_beta     59.99999800269653
_cell_angle_gamma    59.99999855984568

_space_group_name_H-M_alt    "P 1"
_space_group_IT_number       1

loop_
  _space_group_symop_operation_xyz
  'x, y, z'

loop_
  _atom_site_type_symbol
  _atom_site_label
  _atom_site_symmetry_multiplicity
  _atom_site_fract_x
  _atom_site_fract_y
  _atom_site_fract_z
  _atom_site_occupancy
  Ge  Ge1       1.0  0.24999995483447887  0.2499999592650495  0.2500000976128352  1.0000
  Ge  Ge2       1.0  0.7499999745954381  0.7500000441339616  0.7500000508754862  1.0000
  Cu  Cu1       1.0  6.666531845734105e-09  0.9999999930692156  0.9999999793826033  1.0000
  F   F1        1.0  0.2539036505579757  0.2539036532609571  0.746096306586103  1.0000
  F   F2        1.0  0.7460963570205563  0.7460963639996184  0.25390361669670425  1.0000
  F   F3        1.0  0.7460963954289397  0.25390359983064775  0.2539036329591242  1.0000
  F   F4        1.0  0.2539036074196127  0.7460963989478382  0.7460963547466845  1.0000
  F   F5        1.0  0.2539036649033223  0.7460963675446037  0.25390359109806304  1.0000
  F   F6        1.0  0.7460963894503868  0.25390363354414325  0.7460963357462719  1.0000
