data_image0
_chemical_formula_structural       Ge2CoTe6
_chemical_formula_sum              "Ge2 Co1 Te6"
_cell_length_a       6.92970975641022
_cell_length_b       6.929709633612028
_cell_length_c       6.929709728934364
_cell_angle_alpha    59.999999819615894
_cell_angle_beta     59.99999975645967
_cell_angle_gamma    59.99999978959221

_space_group_name_H-M_alt    "P 1"
_space_group_IT_number       1

loop_
  _space_group_symop_operation_xyz
  'x, y, z'

loop_
  _atom_site_type_symbol
  _atom_site_label
  _atom_site_symmetry_multiplicity
  _atom_site_fract_x
  _atom_site_fract_y
  _atom_site_fract_z
  _atom_site_occupancy
  Ge  Ge1       1.0  0.24999997847523978  0.24999997967883458  0.2500000172031616  1.0000
  Ge  Ge2       1.0  0.7500000213313115  0.7500000362425513  0.7499999990163361  1.0000
  Co  Co1       1.0  0.9999999801401107  0.9999999346068413  1.1477961826013377e-07  1.0000
  Te  Te1       1.0  0.2486593844055694  0.24865945222643746  0.7513405729913815  1.0000
  Te  Te2       1.0  0.7513406355467636  0.7513406432271685  0.24865931546377334  1.0000
  Te  Te3       1.0  0.7513406028466405  0.2486593869113264  0.24865939516310148  1.0000
  Te  Te4       1.0  0.24865940030986192  0.7513405989645539  0.7513405810108835  1.0000
  Te  Te5       1.0  0.2486593869939482  0.7513405896181968  0.24865942151963355  1.0000
  Te  Te6       1.0  0.751340612056004  0.24865937858385667  0.7513405756459732  1.0000
