data_image0
_chemical_formula_structural       Ge2FeS6
_chemical_formula_sum              "Ge2 Fe1 S6"
_cell_length_a       6.247672964448027
_cell_length_b       6.247672801051321
_cell_length_c       6.247672977878926
_cell_angle_alpha    60.00000050853341
_cell_angle_beta     60.00000097372386
_cell_angle_gamma    60.00000049089842

_space_group_name_H-M_alt    "P 1"
_space_group_IT_number       1

loop_
  _space_group_symop_operation_xyz
  'x, y, z'

loop_
  _atom_site_type_symbol
  _atom_site_label
  _atom_site_symmetry_multiplicity
  _atom_site_fract_x
  _atom_site_fract_y
  _atom_site_fract_z
  _atom_site_occupancy
  Ge  Ge1       1.0  0.2500002651485499  0.249999944085428  0.2499998554399078  1.0000
  Ge  Ge2       1.0  0.7499999148941529  0.7499999067485044  0.7499999917576988  1.0000
  Fe  Fe1       1.0  0.9999999452456431  0.9999999313887403  1.2570664467219765e-07  1.0000
  S   S1        1.0  0.24556968239723195  0.2455697662973476  0.7544301909793114  1.0000
  S   S2        1.0  0.7544302040363379  0.7544303942674143  0.24556964975804374  1.0000
  S   S3        1.0  0.7544302833183968  0.24556975233662592  0.24556972317270795  1.0000
  S   S4        1.0  0.24556985974089263  0.7544301318227786  0.7544303851504116  1.0000
  S   S5        1.0  0.2455697071776154  0.7544302019500368  0.24556976396554756  1.0000
  S   S6        1.0  0.7544301345818375  0.2455699429321533  0.7544302782139171  1.0000
