data_image0
_chemical_formula_structural       Ge2FeSe6
_chemical_formula_sum              "Ge2 Fe1 Se6"
_cell_length_a       6.528340564771963
_cell_length_b       6.528340663670975
_cell_length_c       6.528340754235793
_cell_angle_alpha    60.00000085319788
_cell_angle_beta     60.00000009181145
_cell_angle_gamma    59.999999698102506

_space_group_name_H-M_alt    "P 1"
_space_group_IT_number       1

loop_
  _space_group_symop_operation_xyz
  'x, y, z'

loop_
  _atom_site_type_symbol
  _atom_site_label
  _atom_site_symmetry_multiplicity
  _atom_site_fract_x
  _atom_site_fract_y
  _atom_site_fract_z
  _atom_site_occupancy
  Ge  Ge1       1.0  0.25000010714588256  0.2499998923192949  0.2499999638171217  1.0000
  Ge  Ge2       1.0  0.7499999263930373  0.7500000183977384  0.7499999672707931  1.0000
  Fe  Fe1       1.0  4.573611170372856e-09  7.504172799034984e-09  2.612854666912064e-08  1.0000
  Se  Se1       1.0  0.24580228592685646  0.2458023019774155  0.7541977189811055  1.0000
  Se  Se2       1.0  0.754197625620349  0.7541976987896907  0.2458023613427324  1.0000
  Se  Se3       1.0  0.7541976987228401  0.24580228409572769  0.24580226192635765  1.0000
  Se  Se4       1.0  0.24580235578968332  0.7541977016630314  0.7541977145926435  1.0000
  Se  Se5       1.0  0.24580229863088485  0.7541977561550932  0.24580223306973745  1.0000
  Se  Se6       1.0  0.7541976991191055  0.24580233090999568  0.7541977594719355  1.0000
