data_image0
_chemical_formula_structural       Ge2FeO6
_chemical_formula_sum              "Ge2 Fe1 O6"
_cell_length_a       5.176456881703111
_cell_length_b       5.1764570461871955
_cell_length_c       5.176457071242709
_cell_angle_alpha    59.99999994932418
_cell_angle_beta     60.00000040341748
_cell_angle_gamma    60.000000168056815

_space_group_name_H-M_alt    "P 1"
_space_group_IT_number       1

loop_
  _space_group_symop_operation_xyz
  'x, y, z'

loop_
  _atom_site_type_symbol
  _atom_site_label
  _atom_site_symmetry_multiplicity
  _atom_site_fract_x
  _atom_site_fract_y
  _atom_site_fract_z
  _atom_site_occupancy
  Ge  Ge1       1.0  0.2500000116453428  0.2500000245123013  0.24999997056992956  1.0000
  Ge  Ge2       1.0  0.7499999912696731  0.7500000238511015  0.7499999545222206  1.0000
  Fe  Fe1       1.0  0.9999999558156144  0.9999999384842428  4.29555599912397e-07  1.0000
  O   O1        1.0  0.2559438935489913  0.2559439085866024  0.7440560981633958  1.0000
  O   O2        1.0  0.7440561281354215  0.7440561303128377  0.25594387636708793  1.0000
  O   O3        1.0  0.7440561757727078  0.2559437987272901  0.2559438280352677  1.0000
  O   O4        1.0  0.2559439881377843  0.7440560343309682  0.7440560063705016  1.0000
  O   O5        1.0  0.2559437991454771  0.7440562094208711  0.2559438035176671  1.0000
  O   O6        1.0  0.7440560202663058  0.2559439477781005  0.7440560526580358  1.0000
