data_image0
_chemical_formula_structural       Ge2IrO6
_chemical_formula_sum              "Ge2 Ir1 O6"
_cell_length_a       5.359676577264071
_cell_length_b       5.359676705092375
_cell_length_c       5.359676810424819
_cell_angle_alpha    60.00000110367861
_cell_angle_beta     60.00000112343588
_cell_angle_gamma    60.000002538885546

_space_group_name_H-M_alt    "P 1"
_space_group_IT_number       1

loop_
  _space_group_symop_operation_xyz
  'x, y, z'

loop_
  _atom_site_type_symbol
  _atom_site_label
  _atom_site_symmetry_multiplicity
  _atom_site_fract_x
  _atom_site_fract_y
  _atom_site_fract_z
  _atom_site_occupancy
  Ge  Ge1       1.0  0.2500000374013795  0.250000005115491  0.24999977882207566  1.0000
  Ge  Ge2       1.0  0.7500000024817354  0.7499999696442848  0.7499998843561239  1.0000
  Ir  Ir1       1.0  4.0803331069143823e-08  6.855329462761446e-09  0.9999999892311596  1.0000
  O   O1        1.0  0.24671095076836325  0.24671116394314876  0.7532889692706096  1.0000
  O   O2        1.0  0.7532890505741191  0.7532888359528361  0.24671115399534768  1.0000
  O   O3        1.0  0.7532890333681371  0.24671092035346845  0.24671115466299642  1.0000
  O   O4        1.0  0.2467110366768959  0.7532890544063123  0.7532889337592996  1.0000
  O   O5        1.0  0.24671111214873945  0.7532890149634215  0.2467109473272103  1.0000
  O   O6        1.0  0.7532887505266087  0.24671102606453296  0.7532891873906442  1.0000
