data_image0
_chemical_formula_structural       Ge2IrSe6
_chemical_formula_sum              "Ge2 Ir1 Se6"
_cell_length_a       6.5495950716095415
_cell_length_b       6.549595122745006
_cell_length_c       6.549595045624711
_cell_angle_alpha    60.000000204577105
_cell_angle_beta     59.999999468928074
_cell_angle_gamma    59.99999895960323

_space_group_name_H-M_alt    "P 1"
_space_group_IT_number       1

loop_
  _space_group_symop_operation_xyz
  'x, y, z'

loop_
  _atom_site_type_symbol
  _atom_site_label
  _atom_site_symmetry_multiplicity
  _atom_site_fract_x
  _atom_site_fract_y
  _atom_site_fract_z
  _atom_site_occupancy
  Ge  Ge1       1.0  0.2500000356277346  0.25000000706567366  0.24999989112167445  1.0000
  Ge  Ge2       1.0  0.7500000994248804  0.7499998267216919  0.7499999773978393  1.0000
  Ir  Ir1       1.0  0.999999978113611  7.479820579262053e-09  0.9999998499416533  1.0000
  Se  Se1       1.0  0.2630983805186404  0.2630984066955581  0.7369015992690497  1.0000
  Se  Se2       1.0  0.7369016489457281  0.7369016327868685  0.26309843142391853  1.0000
  Se  Se3       1.0  0.7369016243999573  0.26309839463372425  0.26309837727154894  1.0000
  Se  Se4       1.0  0.2630983648176522  0.7369016598083437  0.7369016904939697  1.0000
  Se  Se5       1.0  0.26309832149374457  0.7369016353064289  0.2630983994100134  1.0000
  Se  Se6       1.0  0.736901548764947  0.2630984322253261  0.7369017884698471  1.0000
