data_image0
_chemical_formula_structural       Ge2MgCl6
_chemical_formula_sum              "Ge2 Mg1 Cl6"
_cell_length_a       6.478658554755429
_cell_length_b       6.478658446789512
_cell_length_c       6.478658471322287
_cell_angle_alpha    59.99999983556556
_cell_angle_beta     59.999998974623175
_cell_angle_gamma    59.99999885421404

_space_group_name_H-M_alt    "P 1"
_space_group_IT_number       1

loop_
  _space_group_symop_operation_xyz
  'x, y, z'

loop_
  _atom_site_type_symbol
  _atom_site_label
  _atom_site_symmetry_multiplicity
  _atom_site_fract_x
  _atom_site_fract_y
  _atom_site_fract_z
  _atom_site_occupancy
  Ge  Ge1       1.0  0.24999995588423388  0.24999996086351042  0.25000011974316005  1.0000
  Ge  Ge2       1.0  0.7499998813674552  0.7500000980995242  0.7500001303964292  1.0000
  Mg  Mg1       1.0  0.9999999886759712  1.8904298535211445e-09  6.260329052179582e-09  1.0000
  Cl  Cl1       1.0  0.25679029649807134  0.25679015642513653  0.7432097642674741  1.0000
  Cl  Cl2       1.0  0.7432098198047868  0.7432097872216789  0.2567901215387519  1.0000
  Cl  Cl3       1.0  0.7432098277823824  0.2567901971671332  0.2567901622806509  1.0000
  Cl  Cl4       1.0  0.25679015007445594  0.7432098410011718  0.7432098010549013  1.0000
  Cl  Cl5       1.0  0.25679023929092853  0.743209781836551  0.25679016166547336  1.0000
  Cl  Cl6       1.0  0.7432098464963561  0.2567901731528433  0.7432097383578387  1.0000
