data_image0
_chemical_formula_structural       Ge2MnTe6
_chemical_formula_sum              "Ge2 Mn1 Te6"
_cell_length_a       6.936172684809048
_cell_length_b       6.936172579451028
_cell_length_c       6.936172662049549
_cell_angle_alpha    59.99999983774854
_cell_angle_beta     60.00000077827218
_cell_angle_gamma    59.99999991343008

_space_group_name_H-M_alt    "P 1"
_space_group_IT_number       1

loop_
  _space_group_symop_operation_xyz
  'x, y, z'

loop_
  _atom_site_type_symbol
  _atom_site_label
  _atom_site_symmetry_multiplicity
  _atom_site_fract_x
  _atom_site_fract_y
  _atom_site_fract_z
  _atom_site_occupancy
  Ge  Ge1       1.0  0.24999998876688992  0.2500000351790224  0.24999998669895307  1.0000
  Ge  Ge2       1.0  0.7499999306023164  0.7500000278446888  0.7500000715774815  1.0000
  Mn  Mn1       1.0  2.428171299523397e-08  7.0629435397818415e-09  2.037060392564302e-08  1.0000
  Te  Te1       1.0  0.25471958058931155  0.2547195841351836  0.7452804176357869  1.0000
  Te  Te2       1.0  0.7452803879838775  0.7452804011961491  0.254719559731505  1.0000
  Te  Te3       1.0  0.7452804244759481  0.25471956180269717  0.25471956392996725  1.0000
  Te  Te4       1.0  0.25471960021120477  0.7452804199971638  0.7452804404896185  1.0000
  Te  Te5       1.0  0.2547196244264537  0.745280432310426  0.25471949535902233  1.0000
  Te  Te6       1.0  0.7452804367005944  0.25471953006634035  0.7452804486503409  1.0000
