data_image0
_chemical_formula_structural       Ge2MgBr6
_chemical_formula_sum              "Ge2 Mg1 Br6"
_cell_length_a       6.952357477701304
_cell_length_b       6.952357453052029
_cell_length_c       6.952357498021893
_cell_angle_alpha    60.00000002323154
_cell_angle_beta     60.00000101284668
_cell_angle_gamma    60.00000141825761

_space_group_name_H-M_alt    "P 1"
_space_group_IT_number       1

loop_
  _space_group_symop_operation_xyz
  'x, y, z'

loop_
  _atom_site_type_symbol
  _atom_site_label
  _atom_site_symmetry_multiplicity
  _atom_site_fract_x
  _atom_site_fract_y
  _atom_site_fract_z
  _atom_site_occupancy
  Ge  Ge1       1.0  0.2499999973746357  0.25000001396117083  0.24999998263523268  1.0000
  Ge  Ge2       1.0  0.7499999028050177  0.7500000806392673  0.7500001083932002  1.0000
  Mg  Mg1       1.0  0.9999999897324954  1.585462744927344e-08  0.9999999670008571  1.0000
  Br  Br1       1.0  0.25723353051419245  0.25723349159709513  0.7427664832168203  1.0000
  Br  Br2       1.0  0.7427664736818462  0.7427664902593265  0.2572334999832696  1.0000
  Br  Br3       1.0  0.7427665258080544  0.2572334814818432  0.2572334913249651  1.0000
  Br  Br4       1.0  0.25723351962492846  0.7427664862815767  0.7427664941251249  1.0000
  Br  Br5       1.0  0.2572335166876604  0.7427664887732877  0.2572334717781585  1.0000
  Br  Br6       1.0  0.7427665227063114  0.257233447280877  0.7427665124090105  1.0000
