data_image0
_chemical_formula_structural       Ge2MgI6
_chemical_formula_sum              "Ge2 Mg1 I6"
_cell_length_a       7.53827962057665
_cell_length_b       7.538279698324064
_cell_length_c       7.538279580753978
_cell_angle_alpha    60.00000004374696
_cell_angle_beta     59.99999988419526
_cell_angle_gamma    60.00000033649053

_space_group_name_H-M_alt    "P 1"
_space_group_IT_number       1

loop_
  _space_group_symop_operation_xyz
  'x, y, z'

loop_
  _atom_site_type_symbol
  _atom_site_label
  _atom_site_symmetry_multiplicity
  _atom_site_fract_x
  _atom_site_fract_y
  _atom_site_fract_z
  _atom_site_occupancy
  Ge  Ge1       1.0  0.25000004966805134  0.2499999895847552  0.24999996163718213  1.0000
  Ge  Ge2       1.0  0.7499999809567192  0.7499999720036664  0.7500000084340053  1.0000
  Mg  Mg1       1.0  9.748204440333164e-09  0.9999999707553865  1.5054455146046297e-08  1.0000
  I   I1        1.0  0.26036874588477465  0.2603687480553727  0.7396312501024841  1.0000
  I   I2        1.0  0.739631235598151  0.7396312736469765  0.2603687609123539  1.0000
  I   I3        1.0  0.739631239840936  0.2603687694587454  0.260368743862337  1.0000
  I   I4        1.0  0.2603687720148285  0.7396312392459979  0.7396312544851965  1.0000
  I   I5        1.0  0.26036874118941816  0.7396312624062679  0.26036875932212095  1.0000
  I   I6        1.0  0.7396312261357915  0.26036877879249043  0.7396312397374318  1.0000
