data_image0
_chemical_formula_structural       Ge2MnS6
_chemical_formula_sum              "Ge2 Mn1 S6"
_cell_length_a       6.333596889457928
_cell_length_b       6.3335969979012265
_cell_length_c       6.333597134353989
_cell_angle_alpha    59.99999975427364
_cell_angle_beta     59.9999995427115
_cell_angle_gamma    60.00000086985605

_space_group_name_H-M_alt    "P 1"
_space_group_IT_number       1

loop_
  _space_group_symop_operation_xyz
  'x, y, z'

loop_
  _atom_site_type_symbol
  _atom_site_label
  _atom_site_symmetry_multiplicity
  _atom_site_fract_x
  _atom_site_fract_y
  _atom_site_fract_z
  _atom_site_occupancy
  Ge  Ge1       1.0  0.2500003014420002  0.24999997485859798  0.2500000194607143  1.0000
  Ge  Ge2       1.0  0.7500003248974272  0.7500000986112345  0.7499998537272526  1.0000
  Mn  Mn1       1.0  0.9999999770544054  0.999999992265091  0.9999999774470931  1.0000
  S   S1        1.0  0.2471284853107707  0.24712858249996236  0.7528714220265518  1.0000
  S   S2        1.0  0.7528714333013277  0.75287154124677  0.24712851937116076  1.0000
  S   S3        1.0  0.7528713160053443  0.24712844722309643  0.2471286244714052  1.0000
  S   S4        1.0  0.24712839390679872  0.7528714986207332  0.7528714675979313  1.0000
  S   S5        1.0  0.24712841576017322  0.7528714259661633  0.24712857912961322  1.0000
  S   S6        1.0  0.752871349307376  0.2471284637995785  0.752871541820933  1.0000
