data_image0
_chemical_formula_structural       Ge2MnO6
_chemical_formula_sum              "Ge2 Mn1 O6"
_cell_length_a       5.2455045231413555
_cell_length_b       5.245504524383227
_cell_length_c       5.245504469316763
_cell_angle_alpha    60.00000086013755
_cell_angle_beta     60.00000028285175
_cell_angle_gamma    60.000000527699044

_space_group_name_H-M_alt    "P 1"
_space_group_IT_number       1

loop_
  _space_group_symop_operation_xyz
  'x, y, z'

loop_
  _atom_site_type_symbol
  _atom_site_label
  _atom_site_symmetry_multiplicity
  _atom_site_fract_x
  _atom_site_fract_y
  _atom_site_fract_z
  _atom_site_occupancy
  Ge  Ge1       1.0  0.24999999282522475  0.25000001537372996  0.2499999577466671  1.0000
  Ge  Ge2       1.0  0.750000001934762  0.7500000087636443  0.7499999678833695  1.0000
  Mn  Mn1       1.0  3.11960901305081e-08  1.8678771409012336e-08  0.9999996929162078  1.0000
  O   O1        1.0  0.25229817920120756  0.2522981448924739  0.7477017951063687  1.0000
  O   O2        1.0  0.7477017936143651  0.7477017601677222  0.25229823725595607  1.0000
  O   O3        1.0  0.7477017155521649  0.25229829542594784  0.25229829995238456  1.0000
  O   O4        1.0  0.25229811050386447  0.7477019178340055  0.7477018766443657  1.0000
  O   O5        1.0  0.2522983199987289  0.7477016930373559  0.2522982800851025  1.0000
  O   O6        1.0  0.7477019086157464  0.25229811162443594  0.7477018518716455  1.0000
