data_image0
_chemical_formula_structural       Ge2NiS6
_chemical_formula_sum              "Ge2 Ni1 S6"
_cell_length_a       6.2181507930577995
_cell_length_b       6.218151744287935
_cell_length_c       6.2181514153463535
_cell_angle_alpha    60.00000219794732
_cell_angle_beta     59.99999752390768
_cell_angle_gamma    60.00000027543194

_space_group_name_H-M_alt    "P 1"
_space_group_IT_number       1

loop_
  _space_group_symop_operation_xyz
  'x, y, z'

loop_
  _atom_site_type_symbol
  _atom_site_label
  _atom_site_symmetry_multiplicity
  _atom_site_fract_x
  _atom_site_fract_y
  _atom_site_fract_z
  _atom_site_occupancy
  Ge  Ge1       1.0  0.24999976994300893  0.2500000998790408  0.25000015151228805  1.0000
  Ge  Ge2       1.0  0.7500000354497424  0.7499997717766865  0.7500001256848428  1.0000
  Ni  Ni1       1.0  1.7369397681274098e-08  0.999999998030371  0.9999999762181658  1.0000
  S   S1        1.0  0.24507974334566815  0.24507979790459095  0.7549202083756318  1.0000
  S   S2        1.0  0.7549203041275473  0.7549202332910286  0.24507974739669788  1.0000
  S   S3        1.0  0.7549203125424165  0.24507982177741172  0.24507963021240636  1.0000
  S   S4        1.0  0.24507973239794636  0.754920244871519  0.754920270503014  1.0000
  S   S5        1.0  0.24507974777755176  0.7549202360111015  0.24507972328757396  1.0000
  S   S6        1.0  0.7549203503781263  0.24507979912377315  0.7549201649690223  1.0000
