data_image0
_chemical_formula_structural       Ge2NiI6
_chemical_formula_sum              "Ge2 Ni1 I6"
_cell_length_a       7.314045250622488
_cell_length_b       7.314045196685277
_cell_length_c       7.314045310614458
_cell_angle_alpha    59.999999866770565
_cell_angle_beta     59.999999583230654
_cell_angle_gamma    59.9999999637353

_space_group_name_H-M_alt    "P 1"
_space_group_IT_number       1

loop_
  _space_group_symop_operation_xyz
  'x, y, z'

loop_
  _atom_site_type_symbol
  _atom_site_label
  _atom_site_symmetry_multiplicity
  _atom_site_fract_x
  _atom_site_fract_y
  _atom_site_fract_z
  _atom_site_occupancy
  Ge  Ge1       1.0  0.24999998378433078  0.2500000110453651  0.24999998453254652  1.0000
  Ge  Ge2       1.0  0.7499999999438521  0.7499999962968552  0.7500000010438947  1.0000
  Ni  Ni1       1.0  3.159131193481187e-08  0.9999999715333141  1.3477243679036577e-08  1.0000
  I   I1        1.0  0.2515506581091628  0.2515506407649095  0.748449333154742  1.0000
  I   I2        1.0  0.7484493448348183  0.7484493799733983  0.25155063885022133  1.0000
  I   I3        1.0  0.7484493227421571  0.25155064080164474  0.2515506534583613  1.0000
  I   I4        1.0  0.2515506237336747  0.7484493883092179  0.7484493644701186  1.0000
  I   I5        1.0  0.25155067794343594  0.7484493557428838  0.25155063677476286  1.0000
  I   I6        1.0  0.7484493554919475  0.251550611411074  0.7484493836919498  1.0000
