data_image0
_chemical_formula_structural       Ge2NiTe6
_chemical_formula_sum              "Ge2 Ni1 Te6"
_cell_length_a       6.931186523913244
_cell_length_b       6.931186582101507
_cell_length_c       6.931186530266052
_cell_angle_alpha    59.99999954419795
_cell_angle_beta     60.00000057984705
_cell_angle_gamma    59.99999882367401

_space_group_name_H-M_alt    "P 1"
_space_group_IT_number       1

loop_
  _space_group_symop_operation_xyz
  'x, y, z'

loop_
  _atom_site_type_symbol
  _atom_site_label
  _atom_site_symmetry_multiplicity
  _atom_site_fract_x
  _atom_site_fract_y
  _atom_site_fract_z
  _atom_site_occupancy
  Ge  Ge1       1.0  0.2500000969262367  0.25000004216158633  0.24999994829556718  1.0000
  Ge  Ge2       1.0  0.7500000114738674  0.7499999798232582  0.7500000621981361  1.0000
  Ni  Ni1       1.0  3.333632507290128e-08  0.9999999699608962  0.9999999940231264  1.0000
  Te  Te1       1.0  0.2573370799203796  0.2573370896847327  0.7426629221919135  1.0000
  Te  Te2       1.0  0.7426628806144631  0.7426629110960417  0.25733710646975155  1.0000
  Te  Te3       1.0  0.7426629049776754  0.25733708566497027  0.2573370365615159  1.0000
  Te  Te4       1.0  0.2573370501550915  0.7426629363198776  0.7426629337027454  1.0000
  Te  Te5       1.0  0.2573370260050456  0.7426629448416916  0.25733701567269285  1.0000
  Te  Te6       1.0  0.7426629142525732  0.2573370418030348  0.7426629782564488  1.0000
