data_image0
_chemical_formula_structural       Ge2OsO6
_chemical_formula_sum              "Ge2 Os1 O6"
_cell_length_a       5.3572226998186245
_cell_length_b       5.357222541973167
_cell_length_c       5.357222406297434
_cell_angle_alpha    59.999999318888776
_cell_angle_beta     59.999999355379686
_cell_angle_gamma    60.00000010494118

_space_group_name_H-M_alt    "P 1"
_space_group_IT_number       1

loop_
  _space_group_symop_operation_xyz
  'x, y, z'

loop_
  _atom_site_type_symbol
  _atom_site_label
  _atom_site_symmetry_multiplicity
  _atom_site_fract_x
  _atom_site_fract_y
  _atom_site_fract_z
  _atom_site_occupancy
  Ge  Ge1       1.0  0.24999993673051638  0.2500002356183423  0.24999998972454363  1.0000
  Ge  Ge2       1.0  0.7500000933910188  0.749999908986437  0.749999813980987  1.0000
  Os  Os1       1.0  3.09602091001107e-08  0.9999999588491845  1.069521996042339e-08  1.0000
  O   O1        1.0  0.2439851334477052  0.24398520768235163  0.756014826528093  1.0000
  O   O2        1.0  0.7560148176447338  0.756014786036101  0.24398521719996197  1.0000
  O   O3        1.0  0.756014809488779  0.24398514030857482  0.2439853046938152  1.0000
  O   O4        1.0  0.24398521974380036  0.7560147871113412  0.7560148301786622  1.0000
  O   O5        1.0  0.24398516200800327  0.7560147203028406  0.24398525060217016  1.0000
  O   O6        1.0  0.756014801516331  0.2439852619848296  0.7560148262248291  1.0000
