data_image0
_chemical_formula_structural       Ge2OsSe6
_chemical_formula_sum              "Ge2 Os1 Se6"
_cell_length_a       6.419253619105183
_cell_length_b       6.4192534733041064
_cell_length_c       6.419253676616016
_cell_angle_alpha    59.99999921731667
_cell_angle_beta     60.00000110393623
_cell_angle_gamma    60.00000271528269

_space_group_name_H-M_alt    "P 1"
_space_group_IT_number       1

loop_
  _space_group_symop_operation_xyz
  'x, y, z'

loop_
  _atom_site_type_symbol
  _atom_site_label
  _atom_site_symmetry_multiplicity
  _atom_site_fract_x
  _atom_site_fract_y
  _atom_site_fract_z
  _atom_site_occupancy
  Ge  Ge1       1.0  0.24999987395987647  0.2500001365256968  0.2500001446016848  1.0000
  Ge  Ge2       1.0  0.7500001516272574  0.7499999535832391  0.7500001507936388  1.0000
  Os  Os1       1.0  0.9999998826410152  2.28950850463769e-08  2.0301329806110436e-07  1.0000
  Se  Se1       1.0  0.2721948835366193  0.2721949224438534  0.7278050059360633  1.0000
  Se  Se2       1.0  0.7278051443419387  0.7278050474658626  0.2721947268455735  1.0000
  Se  Se3       1.0  0.7278050312688894  0.27219503921235244  0.272194916487025  1.0000
  Se  Se4       1.0  0.2721949715354733  0.7278049249735901  0.7278049376249137  1.0000
  Se  Se5       1.0  0.27219500778415784  0.7278049966087651  0.27219493315961196  1.0000
  Se  Se6       1.0  0.7278050716425828  0.27219494277416595  0.727804994742708  1.0000
