data_image0
_chemical_formula_structural       Ge2OsS6
_chemical_formula_sum              "Ge2 Os1 S6"
_cell_length_a       6.242688029963307
_cell_length_b       6.242687982684366
_cell_length_c       6.242687698378768
_cell_angle_alpha    60.00000114082308
_cell_angle_beta     59.99999948237233
_cell_angle_gamma    60.00000082279438

_space_group_name_H-M_alt    "P 1"
_space_group_IT_number       1

loop_
  _space_group_symop_operation_xyz
  'x, y, z'

loop_
  _atom_site_type_symbol
  _atom_site_label
  _atom_site_symmetry_multiplicity
  _atom_site_fract_x
  _atom_site_fract_y
  _atom_site_fract_z
  _atom_site_occupancy
  Ge  Ge1       1.0  0.2500000444575448  0.2500001199279679  0.24999993857841324  1.0000
  Ge  Ge2       1.0  0.7499998498131438  0.7500001949853923  0.7500000431179943  1.0000
  Os  Os1       1.0  5.46666253019678e-08  1.0790378720687816e-07  7.409658427203978e-08  1.0000
  S   S1        1.0  0.26097893351641344  0.2609790911471893  0.7390209314601796  1.0000
  S   S2        1.0  0.7390209870282767  0.7390209451782128  0.2609789777608128  1.0000
  S   S3        1.0  0.7390208894225999  0.26097890033274135  0.2609790961779287  1.0000
  S   S4        1.0  0.2609790450830058  0.7390208887948959  0.7390208880127612  1.0000
  S   S5        1.0  0.26097927841342494  0.73902083762054  0.2609790280384509  1.0000
  S   S6        1.0  0.7390209182986155  0.26097897504974366  0.7390209814744785  1.0000
