data_image0
_chemical_formula_structural       Ge2PdO6
_chemical_formula_sum              "Ge2 Pd1 O6"
_cell_length_a       5.090022427178278
_cell_length_b       5.090022592927507
_cell_length_c       5.090022280418266
_cell_angle_alpha    59.99999909261423
_cell_angle_beta     59.99999975848006
_cell_angle_gamma    59.9999982663275

_space_group_name_H-M_alt    "P 1"
_space_group_IT_number       1

loop_
  _space_group_symop_operation_xyz
  'x, y, z'

loop_
  _atom_site_type_symbol
  _atom_site_label
  _atom_site_symmetry_multiplicity
  _atom_site_fract_x
  _atom_site_fract_y
  _atom_site_fract_z
  _atom_site_occupancy
  Ge  Ge1       1.0  0.25000002275021843  0.2499998487371508  0.2500000701575817  1.0000
  Ge  Ge2       1.0  0.7499999927865585  0.7499998951057997  0.749999963738448  1.0000
  Pd  Pd1       1.0  0.9999999559105301  9.143437894911625e-08  2.3478614423434398e-08  1.0000
  O   O1        1.0  0.25911988129716507  0.2591197109025895  0.7408801721474654  1.0000
  O   O2        1.0  0.7408801447290655  0.7408803553668541  0.2591197836988411  1.0000
  O   O3        1.0  0.7408802851858172  0.25911982121615107  0.2591197489872492  1.0000
  O   O4        1.0  0.25911970199972356  0.7408802594903001  0.7408802367425498  1.0000
  O   O5        1.0  0.25911973390829385  0.7408802083952171  0.25911984826570333  1.0000
  O   O6        1.0  0.7408802201885607  0.25911986268656295  0.7408801666792867  1.0000
