data_image0
_chemical_formula_structural       Ge2PtS6
_chemical_formula_sum              "Ge2 Pt1 S6"
_cell_length_a       6.2813197629683994
_cell_length_b       6.281319781490917
_cell_length_c       6.281319771260346
_cell_angle_alpha    59.999999782346876
_cell_angle_beta     60.000000410080325
_cell_angle_gamma    60.00000032100672

_space_group_name_H-M_alt    "P 1"
_space_group_IT_number       1

loop_
  _space_group_symop_operation_xyz
  'x, y, z'

loop_
  _atom_site_type_symbol
  _atom_site_label
  _atom_site_symmetry_multiplicity
  _atom_site_fract_x
  _atom_site_fract_y
  _atom_site_fract_z
  _atom_site_occupancy
  Ge  Ge1       1.0  0.25000006869272107  0.2500000317368384  0.249999989033715  1.0000
  Ge  Ge2       1.0  0.7499999610288153  0.7499999314255575  0.7500000457485502  1.0000
  Pt  Pt1       1.0  0.9999999844205651  1.364874641058101e-08  0.9999999993733221  1.0000
  S   S1        1.0  0.25698391413509464  0.2569839096447071  0.7430160564229021  1.0000
  S   S2        1.0  0.743016084316059  0.7430160866646448  0.2569838834917709  1.0000
  S   S3        1.0  0.7430160002643107  0.2569839671273898  0.25698392825964067  1.0000
  S   S4        1.0  0.2569839530829559  0.7430160486801709  0.7430160913228002  1.0000
  S   S5        1.0  0.25698396339841756  0.7430160276117489  0.25698392493047556  1.0000
  S   S6        1.0  0.7430160630542848  0.2569839784467073  0.7430160852621099  1.0000
