data_image0
_chemical_formula_structural       Ge2PdS6
_chemical_formula_sum              "Ge2 Pd1 S6"
_cell_length_a       6.327046163952682
_cell_length_b       6.3270461363153085
_cell_length_c       6.327046323699913
_cell_angle_alpha    59.99999793697291
_cell_angle_beta     59.999999069656404
_cell_angle_gamma    59.999998688284606

_space_group_name_H-M_alt    "P 1"
_space_group_IT_number       1

loop_
  _space_group_symop_operation_xyz
  'x, y, z'

loop_
  _atom_site_type_symbol
  _atom_site_label
  _atom_site_symmetry_multiplicity
  _atom_site_fract_x
  _atom_site_fract_y
  _atom_site_fract_z
  _atom_site_occupancy
  Ge  Ge1       1.0  0.24999997056011947  0.250000072332128  0.2499999143947998  1.0000
  Ge  Ge2       1.0  0.7499999511731498  0.7499998685650981  0.7499999292639759  1.0000
  Pd  Pd1       1.0  4.940532664349795e-09  0.9999999961285405  6.268611641554769e-08  1.0000
  S   S1        1.0  0.26082663989992  0.26082665683546374  0.7391733518855884  1.0000
  S   S2        1.0  0.7391733623367854  0.739173305354782  0.2608267253678977  1.0000
  S   S3        1.0  0.7391733521322519  0.26082672908614435  0.2608266116463501  1.0000
  S   S4        1.0  0.26082673748415036  0.7391732447184775  0.7391734161100993  1.0000
  S   S5        1.0  0.2608266585969683  0.7391733239787193  0.2608266779420205  1.0000
  S   S6        1.0  0.7391733476376362  0.26082677951977007  0.7391733171752952  1.0000
