data_image0
_chemical_formula_structural       Ge2PS6
_chemical_formula_sum              "Ge2 P1 S6"
_cell_length_a       6.359503743586069
_cell_length_b       6.359503884824053
_cell_length_c       6.35950420990716
_cell_angle_alpha    59.999999985524084
_cell_angle_beta     59.999997325254114
_cell_angle_gamma    60.00000133142343

_space_group_name_H-M_alt    "P 1"
_space_group_IT_number       1

loop_
  _space_group_symop_operation_xyz
  'x, y, z'

loop_
  _atom_site_type_symbol
  _atom_site_label
  _atom_site_symmetry_multiplicity
  _atom_site_fract_x
  _atom_site_fract_y
  _atom_site_fract_z
  _atom_site_occupancy
  Ge  Ge1       1.0  0.24999986768414856  0.2500003877381817  0.24999963204949618  1.0000
  Ge  Ge2       1.0  0.7500000917209808  0.7499998170456419  0.7500003815848014  1.0000
  P   P1        1.0  0.9999999717007533  0.9999999922966009  2.2718671766507733e-08  1.0000
  S   S1        1.0  0.24037769266378578  0.24037786070088613  0.7596224790896791  1.0000
  S   S2        1.0  0.7596222481469291  0.7596221765340142  0.24037762918873481  1.0000
  S   S3        1.0  0.7596222938400704  0.24037789275166502  0.24037765233693162  1.0000
  S   S4        1.0  0.24037765284267523  0.759621963453362  0.759622411434633  1.0000
  S   S5        1.0  0.2403779150608911  0.7596220359078468  0.2403776896476765  1.0000
  S   S6        1.0  0.7596222531005125  0.24037788577607094  0.7596221158562916  1.0000
