data_image0
_chemical_formula_structural       Ge2RhS6
_chemical_formula_sum              "Ge2 Rh1 S6"
_cell_length_a       6.240942298898422
_cell_length_b       6.240942185713786
_cell_length_c       6.24094224972456
_cell_angle_alpha    60.000000046584105
_cell_angle_beta     59.99999948532345
_cell_angle_gamma    59.99999887938739

_space_group_name_H-M_alt    "P 1"
_space_group_IT_number       1

loop_
  _space_group_symop_operation_xyz
  'x, y, z'

loop_
  _atom_site_type_symbol
  _atom_site_label
  _atom_site_symmetry_multiplicity
  _atom_site_fract_x
  _atom_site_fract_y
  _atom_site_fract_z
  _atom_site_occupancy
  Ge  Ge1       1.0  0.24999998862169856  0.25000000070626777  0.2500000983581118  1.0000
  Ge  Ge2       1.0  0.7499999927043115  0.7499998882975218  0.7500001639122533  1.0000
  Rh  Rh1       1.0  0.9999999845057236  6.868525515255875e-08  0.9999999493696787  1.0000
  S   S1        1.0  0.2581570848998515  0.25815712014333914  0.7418428390791152  1.0000
  S   S2        1.0  0.7418429008159183  0.7418428944563433  0.25815704574560483  1.0000
  S   S3        1.0  0.7418429253126004  0.2581571279568211  0.2581570013011033  1.0000
  S   S4        1.0  0.25815706963492296  0.7418429200042715  0.7418429311268873  1.0000
  S   S5        1.0  0.2581570866642085  0.7418429302084567  0.2581570477789864  1.0000
  S   S6        1.0  0.7418429499978675  0.25815706476686745  0.741842922331055  1.0000
