data_image0
_chemical_formula_structural       Ge2ReO6
_chemical_formula_sum              "Ge2 Re1 O6"
_cell_length_a       5.322764315620482
_cell_length_b       5.322764417410272
_cell_length_c       5.322764724754521
_cell_angle_alpha    59.99999724607455
_cell_angle_beta     59.99999727433579
_cell_angle_gamma    59.99999972921128

_space_group_name_H-M_alt    "P 1"
_space_group_IT_number       1

loop_
  _space_group_symop_operation_xyz
  'x, y, z'

loop_
  _atom_site_type_symbol
  _atom_site_label
  _atom_site_symmetry_multiplicity
  _atom_site_fract_x
  _atom_site_fract_y
  _atom_site_fract_z
  _atom_site_occupancy
  Ge  Ge1       1.0  0.2500001480963727  0.25000015912239687  0.2499997801273196  1.0000
  Ge  Ge2       1.0  0.750000067730218  0.7499997847793013  0.7499999801638411  1.0000
  Re  Re1       1.0  5.603122249498941e-08  0.9999999815923496  0.999999960522262  1.0000
  O   O1        1.0  0.2508255271291054  0.25082557219195295  0.7491744944677997  1.0000
  O   O2        1.0  0.7491744652079873  0.7491744499422583  0.2508255883219996  1.0000
  O   O3        1.0  0.7491743042142734  0.2508256734702624  0.2508254529407345  1.0000
  O   O4        1.0  0.2508256375920884  0.749174344062036  0.7491745785090248  1.0000
  O   O5        1.0  0.250825405460083  0.7491745095516525  0.2508256771753367  1.0000
  O   O6        1.0  0.749174418061511  0.25082549187394826  0.7491745172850235  1.0000
