data_image0
_chemical_formula_structural       Ge2ReTe6
_chemical_formula_sum              "Ge2 Re1 Te6"
_cell_length_a       7.1055707137506126
_cell_length_b       7.105570739056907
_cell_length_c       7.10557081853939
_cell_angle_alpha    59.99999950962398
_cell_angle_beta     60.00000029539962
_cell_angle_gamma    59.99999973024798

_space_group_name_H-M_alt    "P 1"
_space_group_IT_number       1

loop_
  _space_group_symop_operation_xyz
  'x, y, z'

loop_
  _atom_site_type_symbol
  _atom_site_label
  _atom_site_symmetry_multiplicity
  _atom_site_fract_x
  _atom_site_fract_y
  _atom_site_fract_z
  _atom_site_occupancy
  Ge  Ge1       1.0  0.25000002156175327  0.24999998111995064  0.24999996342337083  1.0000
  Ge  Ge2       1.0  0.7499999727775881  0.7500000192000291  0.7500000108915766  1.0000
  Re  Re1       1.0  1.8270007857946847e-08  0.9999999793163151  2.614185080448504e-09  1.0000
  Te  Te1       1.0  0.2617740535191917  0.26177405791980085  0.7382259556489248  1.0000
  Te  Te2       1.0  0.7382259782782797  0.7382259665311445  0.26177402727717625  1.0000
  Te  Te3       1.0  0.738225949774548  0.26177404789128245  0.26177405952076044  1.0000
  Te  Te4       1.0  0.2617740497357152  0.7382259369159336  0.7382259692222343  1.0000
  Te  Te5       1.0  0.26177404852183783  0.7382259682779823  0.26177400025770664  1.0000
  Te  Te6       1.0  0.7382259110180416  0.2617740389365593  0.7382260091198877  1.0000
