data_image0
_chemical_formula_structural       Ge2ReS6
_chemical_formula_sum              "Ge2 Re1 S6"
_cell_length_a       6.342471867106857
_cell_length_b       6.342471689533796
_cell_length_c       6.34247192777062
_cell_angle_alpha    60.000001312772135
_cell_angle_beta     59.99999967268498
_cell_angle_gamma    59.999999062310835

_space_group_name_H-M_alt    "P 1"
_space_group_IT_number       1

loop_
  _space_group_symop_operation_xyz
  'x, y, z'

loop_
  _atom_site_type_symbol
  _atom_site_label
  _atom_site_symmetry_multiplicity
  _atom_site_fract_x
  _atom_site_fract_y
  _atom_site_fract_z
  _atom_site_occupancy
  Ge  Ge1       1.0  0.24999989132950307  0.2500000206671617  0.2500000213929767  1.0000
  Ge  Ge2       1.0  0.7499999662949  0.7499999770365355  0.7499998201843704  1.0000
  Re  Re1       1.0  3.299139337958755e-08  0.999999988413872  2.0830813679264344e-08  1.0000
  S   S1        1.0  0.2570513890437239  0.25705136444930066  0.7429486931914707  1.0000
  S   S2        1.0  0.7429486640268823  0.7429486313233843  0.25705144421969145  1.0000
  S   S3        1.0  0.7429486939267737  0.25705133795510937  0.2570513176364678  1.0000
  S   S4        1.0  0.2570513905355173  0.7429486346453136  0.7429486548444049  1.0000
  S   S5        1.0  0.2570513437588833  0.7429486495152566  0.2570513479406591  1.0000
  S   S6        1.0  0.7429486387127829  0.2570513887398959  0.7429486584748857  1.0000
