data_image0
_chemical_formula_structural       Ge2RuO6
_chemical_formula_sum              "Ge2 Ru1 O6"
_cell_length_a       5.36824009043584
_cell_length_b       5.368240491633632
_cell_length_c       5.368240340022263
_cell_angle_alpha    59.99999950555804
_cell_angle_beta     59.99999955746485
_cell_angle_gamma    60.00000114744034

_space_group_name_H-M_alt    "P 1"
_space_group_IT_number       1

loop_
  _space_group_symop_operation_xyz
  'x, y, z'

loop_
  _atom_site_type_symbol
  _atom_site_label
  _atom_site_symmetry_multiplicity
  _atom_site_fract_x
  _atom_site_fract_y
  _atom_site_fract_z
  _atom_site_occupancy
  Ge  Ge1       1.0  0.2500003201493878  0.24999980399885638  0.24999973611094495  1.0000
  Ge  Ge2       1.0  0.750000095069638  0.7499999367333323  0.749999721410339  1.0000
  Ru  Ru1       1.0  1.9124117299774114e-09  0.9999999749038948  0.999999944530766  1.0000
  O   O1        1.0  0.24300627423935603  0.2430064329210533  0.7569937650233384  1.0000
  O   O2        1.0  0.7569935226401776  0.7569937367263946  0.24300648390017138  1.0000
  O   O3        1.0  0.756993626866835  0.24300629576843066  0.2430064126371266  1.0000
  O   O4        1.0  0.2430064686120472  0.7569936685472408  0.7569936275883227  1.0000
  O   O5        1.0  0.24300620939579265  0.756993745161831  0.24300648746266967  1.0000
  O   O6        1.0  0.7569934709614837  0.2430064062339035  0.7569937915916684  1.0000
