data_image0
_chemical_formula_structural       Ge2RhSe6
_chemical_formula_sum              "Ge2 Rh1 Se6"
_cell_length_a       6.513825538666429
_cell_length_b       6.513825372459771
_cell_length_c       6.513825114452298
_cell_angle_alpha    60.000004891864755
_cell_angle_beta     60.00000422957951
_cell_angle_gamma    60.000003601864115

_space_group_name_H-M_alt    "P 1"
_space_group_IT_number       1

loop_
  _space_group_symop_operation_xyz
  'x, y, z'

loop_
  _atom_site_type_symbol
  _atom_site_label
  _atom_site_symmetry_multiplicity
  _atom_site_fract_x
  _atom_site_fract_y
  _atom_site_fract_z
  _atom_site_occupancy
  Ge  Ge1       1.0  0.24999864058455823  0.24999938086796888  0.2500007179113464  1.0000
  Ge  Ge2       1.0  0.7499992065899612  0.7500011472012715  0.7500003062581921  1.0000
  Rh  Rh1       1.0  1.6668520958018742e-07  9.025073632974185e-08  0.9999999498270418  1.0000
  Se  Se1       1.0  0.2642357093604836  0.26423490107584147  0.7357647115356069  1.0000
  Se  Se2       1.0  0.7357651635105428  0.7357646812409495  0.26423478907510056  1.0000
  Se  Se3       1.0  0.73576495248328  0.2642350352751809  0.26423534622998457  1.0000
  Se  Se4       1.0  0.2642352125181321  0.7357651656351649  0.7357642650321978  1.0000
  Se  Se5       1.0  0.2642358117417355  0.7357650242128714  0.264235124005043  1.0000
  Se  Se6       1.0  0.7357651451247325  0.2642346464744432  0.7357647233480328  1.0000
