data_image0
_chemical_formula_structural       Ge2SiS6
_chemical_formula_sum              "Ge2 Si1 S6"
_cell_length_a       6.344336777749527
_cell_length_b       6.344338485148688
_cell_length_c       6.344338236291321
_cell_angle_alpha    60.00000561316046
_cell_angle_beta     59.9999979899913
_cell_angle_gamma    60.00000843485784

_space_group_name_H-M_alt    "P 1"
_space_group_IT_number       1

loop_
  _space_group_symop_operation_xyz
  'x, y, z'

loop_
  _atom_site_type_symbol
  _atom_site_label
  _atom_site_symmetry_multiplicity
  _atom_site_fract_x
  _atom_site_fract_y
  _atom_site_fract_z
  _atom_site_occupancy
  Ge  Ge1       1.0  0.25000040084934033  0.24999982378064955  0.24999999654586003  1.0000
  Ge  Ge2       1.0  0.7500003544933017  0.7499996894831253  0.7500002793749861  1.0000
  Si  Si1       1.0  0.9999998028133503  0.9999997779978967  1.4024118588056929e-07  1.0000
  S   S1        1.0  0.2503509649665394  0.2503517360982057  0.7496486341265931  1.0000
  S   S2        1.0  0.7496487785229735  0.7496487269484245  0.25035111012293565  1.0000
  S   S3        1.0  0.7496484136872602  0.2503517010425036  0.25035111333301424  1.0000
  S   S4        1.0  0.25035116236094207  0.7496485708892747  0.749648827532876  1.0000
  S   S5        1.0  0.2503513297574232  0.7496485029656169  0.2503512605424494  1.0000
  S   S6        1.0  0.7496486845978885  0.25035140411054796  0.7496486719694531  1.0000
