data_image0
_chemical_formula_structural       Ge2SI6
_chemical_formula_sum              "Ge2 S1 I6"
_cell_length_a       7.542282743225501
_cell_length_b       7.542282819815047
_cell_length_c       7.542282670366941
_cell_angle_alpha    60.0000016026837
_cell_angle_beta     60.00000085109905
_cell_angle_gamma    59.99999885303181

_space_group_name_H-M_alt    "P 1"
_space_group_IT_number       1

loop_
  _space_group_symop_operation_xyz
  'x, y, z'

loop_
  _atom_site_type_symbol
  _atom_site_label
  _atom_site_symmetry_multiplicity
  _atom_site_fract_x
  _atom_site_fract_y
  _atom_site_fract_z
  _atom_site_occupancy
  Ge  Ge1       1.0  0.24999998382939967  0.24999998678804927  0.2500000393375596  1.0000
  Ge  Ge2       1.0  0.7499999845035125  0.7500000220700064  0.7500000308763367  1.0000
  S   S1        1.0  1.5434433212042122e-08  0.9999999399179779  0.9999999878514717  1.0000
  I   I1        1.0  0.2664491603683262  0.26644915562189253  0.7335508701253278  1.0000
  I   I2        1.0  0.7335508623365384  0.7335508922082835  0.2664491215959272  1.0000
  I   I3        1.0  0.733550879117903  0.26644913188298464  0.26644907487200303  1.0000
  I   I4        1.0  0.2664491031635384  0.7335508948372923  0.7335508428730871  1.0000
  I   I5        1.0  0.26644910743358724  0.733550874521429  0.2664491478742217  1.0000
  I   I6        1.0  0.7335509083753158  0.2664491067313722  0.7335508686509742  1.0000
