data_image0
_chemical_formula_structural       Ge2SBr6
_chemical_formula_sum              "Ge2 S1 Br6"
_cell_length_a       6.927296439527468
_cell_length_b       6.927296175457411
_cell_length_c       6.927296064526389
_cell_angle_alpha    60.00000269457923
_cell_angle_beta     60.00000265953252
_cell_angle_gamma    60.00000267867292

_space_group_name_H-M_alt    "P 1"
_space_group_IT_number       1

loop_
  _space_group_symop_operation_xyz
  'x, y, z'

loop_
  _atom_site_type_symbol
  _atom_site_label
  _atom_site_symmetry_multiplicity
  _atom_site_fract_x
  _atom_site_fract_y
  _atom_site_fract_z
  _atom_site_occupancy
  Ge  Ge1       1.0  0.24999983843340065  0.24999989640346684  0.250000276568774  1.0000
  Ge  Ge2       1.0  0.750000286741214  0.7500000852420391  0.7499997580451427  1.0000
  S   S1        1.0  1.3150199425648221e-08  0.9999999805520173  0.9999999641726448  1.0000
  Br  Br1       1.0  0.2542943901769359  0.2542944723949802  0.7457054540749243  1.0000
  Br  Br2       1.0  0.7457056193095305  0.7457054862665388  0.2542943698235091  1.0000
  Br  Br3       1.0  0.7457055814284086  0.2542943112077719  0.2542944831485963  1.0000
  Br  Br4       1.0  0.25429434705380183  0.7457056704377291  0.7457055790768541  1.0000
  Br  Br5       1.0  0.254294353490757  0.7457056582231522  0.25429449771417345  1.0000
  Br  Br6       1.0  0.7457055777676109  0.2542944401102435  0.7457055957238282  1.0000
