data_image0
_chemical_formula_structural       Ge2SO6
_chemical_formula_sum              "Ge2 S1 O6"
_cell_length_a       5.112393124148079
_cell_length_b       5.1123934853458595
_cell_length_c       5.112393007158123
_cell_angle_alpha    60.00000126355864
_cell_angle_beta     60.00000291937702
_cell_angle_gamma    60.00000147281763

_space_group_name_H-M_alt    "P 1"
_space_group_IT_number       1

loop_
  _space_group_symop_operation_xyz
  'x, y, z'

loop_
  _atom_site_type_symbol
  _atom_site_label
  _atom_site_symmetry_multiplicity
  _atom_site_fract_x
  _atom_site_fract_y
  _atom_site_fract_z
  _atom_site_occupancy
  Ge  Ge1       1.0  0.2500000912091058  0.25000005332734493  0.24999995308707418  1.0000
  Ge  Ge2       1.0  0.749999924158205  0.750000009056789  0.7500001348868028  1.0000
  S   S1        1.0  0.9999999820679668  0.9999999928130845  0.9999999793069445  1.0000
  O   O1        1.0  0.22670161482821355  0.22670151924127668  0.7732983930130222  1.0000
  O   O2        1.0  0.7732983699008383  0.7732984521085858  0.22670158171034824  1.0000
  O   O3        1.0  0.7732984947372832  0.22670158199240276  0.2267015206451858  1.0000
  O   O4        1.0  0.22670149104082585  0.7732984133138487  0.7732984278832429  1.0000
  O   O5        1.0  0.22670162893137913  0.7732983907927146  0.22670147984065597  1.0000
  O   O6        1.0  0.7732983342839346  0.22670156378767714  0.7732984846838514  1.0000
