data_image0
_chemical_formula_structural       Ge2SeS6
_chemical_formula_sum              "Ge2 Se1 S6"
_cell_length_a       6.40210975355433
_cell_length_b       6.402109565582897
_cell_length_c       6.402109379004742
_cell_angle_alpha    60.000000424195406
_cell_angle_beta     59.99999995526488
_cell_angle_gamma    60.00000171116245

_space_group_name_H-M_alt    "P 1"
_space_group_IT_number       1

loop_
  _space_group_symop_operation_xyz
  'x, y, z'

loop_
  _atom_site_type_symbol
  _atom_site_label
  _atom_site_symmetry_multiplicity
  _atom_site_fract_x
  _atom_site_fract_y
  _atom_site_fract_z
  _atom_site_occupancy
  Ge  Ge1       1.0  0.2500000943428198  0.24999999214082935  0.2499999005293759  1.0000
  Ge  Ge2       1.0  0.7500001116277686  0.750000073987181  0.7499998025475213  1.0000
  Se  Se1       1.0  0.9999999686100608  0.9999999751305667  0.9999999890800573  1.0000
  S   S1        1.0  0.2466782217541237  0.24667817499168565  0.7533218986138345  1.0000
  S   S2        1.0  0.7533217733580515  0.7533217878325238  0.2466783270487064  1.0000
  S   S3        1.0  0.7533217720505564  0.24667823200118597  0.24667820798156148  1.0000
  S   S4        1.0  0.2466781770050969  0.7533217499533547  0.7533217593586533  1.0000
  S   S5        1.0  0.24667815305610977  0.7533217817848058  0.2466783121427548  1.0000
  S   S6        1.0  0.7533217704205663  0.24667821738703383  0.7533217937090253  1.0000
