data_image0
_chemical_formula_structural       Ge2SiO6
_chemical_formula_sum              "Ge2 Si1 O6"
_cell_length_a       5.2067166470011195
_cell_length_b       5.206716115001217
_cell_length_c       5.206716997567074
_cell_angle_alpha    60.00000030911565
_cell_angle_beta     60.00000579532832
_cell_angle_gamma    60.000004730910256

_space_group_name_H-M_alt    "P 1"
_space_group_IT_number       1

loop_
  _space_group_symop_operation_xyz
  'x, y, z'

loop_
  _atom_site_type_symbol
  _atom_site_label
  _atom_site_symmetry_multiplicity
  _atom_site_fract_x
  _atom_site_fract_y
  _atom_site_fract_z
  _atom_site_occupancy
  Ge  Ge1       1.0  0.24999976711331043  0.25000044971703583  0.24999979139488754  1.0000
  Ge  Ge2       1.0  0.7499993737714051  0.7500008457716469  0.7499998201301616  1.0000
  Si  Si1       1.0  5.414372072371072e-08  0.999999990591039  0.999999918094146  1.0000
  O   O1        1.0  0.23956614665043563  0.2395650534442858  0.7604342528028415  1.0000
  O   O2        1.0  0.7604347675027834  0.7604339627234281  0.23956555028937299  1.0000
  O   O3        1.0  0.7604348370169566  0.23956530804173087  0.23956577244170965  1.0000
  O   O4        1.0  0.23956566868071202  0.7604346207952979  0.7604341549804606  1.0000
  O   O5        1.0  0.23956532965075633  0.760434147669162  0.23956587907186108  1.0000
  O   O6        1.0  0.7604342319545824  0.2395655530004787  0.7604346344801007  1.0000
