data_image0
_chemical_formula_structural       Ge2SiTe6
_chemical_formula_sum              "Ge2 Si1 Te6"
_cell_length_a       7.116869354588428
_cell_length_b       7.116869301036468
_cell_length_c       7.116869308281649
_cell_angle_alpha    60.00000007982103
_cell_angle_beta     59.999999976512704
_cell_angle_gamma    60.00000030273135

_space_group_name_H-M_alt    "P 1"
_space_group_IT_number       1

loop_
  _space_group_symop_operation_xyz
  'x, y, z'

loop_
  _atom_site_type_symbol
  _atom_site_label
  _atom_site_symmetry_multiplicity
  _atom_site_fract_x
  _atom_site_fract_y
  _atom_site_fract_z
  _atom_site_occupancy
  Ge  Ge1       1.0  0.2499999608577679  0.24999999102747117  0.25000001059293664  1.0000
  Ge  Ge2       1.0  0.7500000180099354  0.7499999610360861  0.74999994619675  1.0000
  Si  Si1       1.0  0.9999999915923206  1.548813572468805e-08  0.9999999753830886  1.0000
  Te  Te1       1.0  0.2618188887458531  0.26181892493595726  0.7381810875323064  1.0000
  Te  Te2       1.0  0.7381811130812256  0.7381810994055674  0.26181891718633954  1.0000
  Te  Te3       1.0  0.7381811078535313  0.261818900713588  0.26181890895838184  1.0000
  Te  Te4       1.0  0.26181891326339896  0.7381811046979931  0.7381811040109835  1.0000
  Te  Te5       1.0  0.2618188849953937  0.7381810761209094  0.2618189662694063  1.0000
  Te  Te6       1.0  0.7381811203719127  0.26181893273247964  0.7381810781458867  1.0000
