data_image0
_chemical_formula_structural       Ge2SiSe6
_chemical_formula_sum              "Ge2 Si1 Se6"
_cell_length_a       6.52952029361951
_cell_length_b       6.529520172746024
_cell_length_c       6.529520680030102
_cell_angle_alpha    59.99999887962676
_cell_angle_beta     59.99999757092727
_cell_angle_gamma    60.00000056535541

_space_group_name_H-M_alt    "P 1"
_space_group_IT_number       1

loop_
  _space_group_symop_operation_xyz
  'x, y, z'

loop_
  _atom_site_type_symbol
  _atom_site_label
  _atom_site_symmetry_multiplicity
  _atom_site_fract_x
  _atom_site_fract_y
  _atom_site_fract_z
  _atom_site_occupancy
  Ge  Ge1       1.0  0.2500007668649648  0.24999990601818367  0.24999974504256445  1.0000
  Ge  Ge2       1.0  0.7499998321776845  0.7500002582573269  0.7500002880622723  1.0000
  Si  Si1       1.0  3.597544873865234e-08  3.0011268504571706e-08  0.9999999486285698  1.0000
  Se  Se1       1.0  0.256875627171667  0.25687511789591005  0.7431246508016442  1.0000
  Se  Se2       1.0  0.7431245379649276  0.7431248944475365  0.25687511622256703  1.0000
  Se  Se3       1.0  0.7431243051382167  0.2568754462122011  0.256875292237461  1.0000
  Se  Se4       1.0  0.2568753546346687  0.7431247612044773  0.7431246222744631  1.0000
  Se  Se5       1.0  0.2568754435711277  0.7431245066303217  0.2568751937455069  1.0000
  Se  Se6       1.0  0.743124095369492  0.25687508180395063  0.7431251335559144  1.0000
