data_image0
_chemical_formula_structural       Ge2TiTe6
_chemical_formula_sum              "Ge2 Ti1 Te6"
_cell_length_a       7.108624484769009
_cell_length_b       7.108624445233556
_cell_length_c       7.108624464016748
_cell_angle_alpha    60.00000066457332
_cell_angle_beta     60.00000043522147
_cell_angle_gamma    60.000000600737515

_space_group_name_H-M_alt    "P 1"
_space_group_IT_number       1

loop_
  _space_group_symop_operation_xyz
  'x, y, z'

loop_
  _atom_site_type_symbol
  _atom_site_label
  _atom_site_symmetry_multiplicity
  _atom_site_fract_x
  _atom_site_fract_y
  _atom_site_fract_z
  _atom_site_occupancy
  Ge  Ge1       1.0  0.25000000866871647  0.2500001182593284  0.24999992846687044  1.0000
  Ge  Ge2       1.0  0.7500000005654881  0.7499998999324015  0.7500000691527307  1.0000
  Ti  Ti1       1.0  3.296307839576447e-08  3.4458001487872137e-09  4.3034314907426875e-09  1.0000
  Te  Te1       1.0  0.2649056467139967  0.26490567187320346  0.7350943324776249  1.0000
  Te  Te2       1.0  0.7350943260466068  0.7350942998002273  0.26490567568960366  1.0000
  Te  Te3       1.0  0.7350943343762769  0.26490568204192566  0.2649056513315951  1.0000
  Te  Te4       1.0  0.2649056786978649  0.735094305137605  0.7350943500269435  1.0000
  Te  Te5       1.0  0.264905672485854  0.7350943189601106  0.2649056652864578  1.0000
  Te  Te6       1.0  0.7350943010123067  0.26490569923161883  0.7350943248798109  1.0000
