data_image0
_chemical_formula_structural       Ge2TiS6
_chemical_formula_sum              "Ge2 Ti1 S6"
_cell_length_a       6.3114368100570415
_cell_length_b       6.311437189241403
_cell_length_c       6.311437085535054
_cell_angle_alpha    59.999998791580495
_cell_angle_beta     60.000000000439194
_cell_angle_gamma    59.999998992993305

_space_group_name_H-M_alt    "P 1"
_space_group_IT_number       1

loop_
  _space_group_symop_operation_xyz
  'x, y, z'

loop_
  _atom_site_type_symbol
  _atom_site_label
  _atom_site_symmetry_multiplicity
  _atom_site_fract_x
  _atom_site_fract_y
  _atom_site_fract_z
  _atom_site_occupancy
  Ge  Ge1       1.0  0.25000024950337574  0.24999997044623748  0.24999988742094706  1.0000
  Ge  Ge2       1.0  0.7500000643395511  0.7499997793835972  0.7499998738569554  1.0000
  Ti  Ti1       1.0  0.99999998225953  0.9999999708922537  0.9999999077610683  1.0000
  S   S1        1.0  0.2598939208585656  0.25989392619736074  0.7401061161857675  1.0000
  S   S2        1.0  0.7401060954482713  0.7401061399366804  0.2598940143856936  1.0000
  S   S3        1.0  0.7401058759294338  0.2598940740935951  0.25989389927895556  1.0000
  S   S4        1.0  0.25989389571725624  0.7401060618990514  0.7401062188744847  1.0000
  S   S5        1.0  0.2598938565858393  0.7401060759977452  0.25989392174963166  1.0000
  S   S6        1.0  0.7401060627555495  0.2598939901362993  0.7401061844209911  1.0000
