data_image0
_chemical_formula_structural       Ge2TiO6
_chemical_formula_sum              "Ge2 Ti1 O6"
_cell_length_a       5.423450453980071
_cell_length_b       5.423450117895268
_cell_length_c       5.423450605740498
_cell_angle_alpha    59.999996075732575
_cell_angle_beta     59.99999954387871
_cell_angle_gamma    59.999997561819285

_space_group_name_H-M_alt    "P 1"
_space_group_IT_number       1

loop_
  _space_group_symop_operation_xyz
  'x, y, z'

loop_
  _atom_site_type_symbol
  _atom_site_label
  _atom_site_symmetry_multiplicity
  _atom_site_fract_x
  _atom_site_fract_y
  _atom_site_fract_z
  _atom_site_occupancy
  Ge  Ge1       1.0  0.2499996323910801  0.25000004632842165  0.25000035834087464  1.0000
  Ge  Ge2       1.0  0.7499997342740761  0.7499999334854816  0.7500003056363359  1.0000
  Ti  Ti1       1.0  0.9999999503225411  0.9999999254780949  1.432288438724706e-07  1.0000
  O   O1        1.0  0.24813093017106744  0.24813069648608213  0.7518691386182647  1.0000
  O   O2        1.0  0.7518691802581692  0.7518691342840244  0.24813078547610876  1.0000
  O   O3        1.0  0.751869388808611  0.24813099452331194  0.24813064417611674  1.0000
  O   O4        1.0  0.24813083449520518  0.7518694301637853  0.7518689541801361  1.0000
  O   O5        1.0  0.24813103391377422  0.7518689780525163  0.24813069723444126  1.0000
  O   O6        1.0  0.7518693656840305  0.2481308730417478  0.7518690739574144  1.0000
