data_image0
_chemical_formula_structural       Ge2TiSe6
_chemical_formula_sum              "Ge2 Ti1 Se6"
_cell_length_a       6.580072159539557
_cell_length_b       6.580072279450627
_cell_length_c       6.580072370490922
_cell_angle_alpha    59.99999939789592
_cell_angle_beta     59.99999877638286
_cell_angle_gamma    59.999997986311094

_space_group_name_H-M_alt    "P 1"
_space_group_IT_number       1

loop_
  _space_group_symop_operation_xyz
  'x, y, z'

loop_
  _atom_site_type_symbol
  _atom_site_label
  _atom_site_symmetry_multiplicity
  _atom_site_fract_x
  _atom_site_fract_y
  _atom_site_fract_z
  _atom_site_occupancy
  Ge  Ge1       1.0  0.2499999498355472  0.2500003486788839  0.2499997779367836  1.0000
  Ge  Ge2       1.0  0.7500000165733258  0.7499998920343883  0.7500001980947317  1.0000
  Ti  Ti1       1.0  0.9999999200222829  0.9999999609128286  0.9999998391701265  1.0000
  Se  Se1       1.0  0.26196037349914153  0.2619602523776607  0.738039725891396  1.0000
  Se  Se2       1.0  0.7380399173160053  0.7380395099830556  0.2619602283301524  1.0000
  Se  Se3       1.0  0.7380396213105619  0.2619604252583792  0.2619601938427653  1.0000
  Se  Se4       1.0  0.2619601997170169  0.7380395250930373  0.738039981823444  1.0000
  Se  Se5       1.0  0.26196034382410954  0.7380397005406671  0.26196021476871095  1.0000
  Se  Se6       1.0  0.7380396396041009  0.2619603838239115  0.7380398567630646  1.0000
