data_image0
_chemical_formula_structural       Ge2VTe6
_chemical_formula_sum              "Ge2 V1 Te6"
_cell_length_a       7.016166571485284
_cell_length_b       7.016166545526803
_cell_length_c       7.016166514451942
_cell_angle_alpha    60.000000325111536
_cell_angle_beta     60.000000150243125
_cell_angle_gamma    59.999999732217624

_space_group_name_H-M_alt    "P 1"
_space_group_IT_number       1

loop_
  _space_group_symop_operation_xyz
  'x, y, z'

loop_
  _atom_site_type_symbol
  _atom_site_label
  _atom_site_symmetry_multiplicity
  _atom_site_fract_x
  _atom_site_fract_y
  _atom_site_fract_z
  _atom_site_occupancy
  Ge  Ge1       1.0  0.25000000440111375  0.2500000400723674  0.2499999882488495  1.0000
  Ge  Ge2       1.0  0.7500000492135832  0.7499999578759259  0.7500000051075397  1.0000
  V   V1        1.0  1.936705288206632e-08  0.9999999912719796  0.9999999704507281  1.0000
  Te  Te1       1.0  0.26473388280574567  0.26473390818435033  0.7352660982892366  1.0000
  Te  Te2       1.0  0.7352660952033057  0.7352660845271313  0.26473391695974474  1.0000
  Te  Te3       1.0  0.735266112448603  0.2647338862982784  0.264733863032631  1.0000
  Te  Te4       1.0  0.26473384278489126  0.7352661500533044  0.7352661474851974  1.0000
  Te  Te5       1.0  0.26473387096620643  0.7352661017583547  0.26473388280197024  1.0000
  Te  Te6       1.0  0.735266121472584  0.2647338822251066  0.7352661295961518  1.0000
