data_image0
_chemical_formula_structural       Ge2VO6
_chemical_formula_sum              "Ge2 V1 O6"
_cell_length_a       5.25002370028384
_cell_length_b       5.250023372228542
_cell_length_c       5.250023277044998
_cell_angle_alpha    59.99999844514682
_cell_angle_beta     59.999998331540105
_cell_angle_gamma    59.99999495149108

_space_group_name_H-M_alt    "P 1"
_space_group_IT_number       1

loop_
  _space_group_symop_operation_xyz
  'x, y, z'

loop_
  _atom_site_type_symbol
  _atom_site_label
  _atom_site_symmetry_multiplicity
  _atom_site_fract_x
  _atom_site_fract_y
  _atom_site_fract_z
  _atom_site_occupancy
  Ge  Ge1       1.0  0.2500041661902268  0.25000328708289954  0.24999676423787567  1.0000
  Ge  Ge2       1.0  0.7499979219801907  0.7500015703462566  0.7500001283725528  1.0000
  V   V1        1.0  0.9999999812267806  2.3328372026148968e-08  0.9999999101037648  1.0000
  O   O1        1.0  0.24833550504450905  0.2483360557863587  0.751664453680535  1.0000
  O   O2        1.0  0.7516647625319982  0.751662736266484  0.24833571715620623  1.0000
  O   O3        1.0  0.7516617725095407  0.24833519410436408  0.2483364215411108  1.0000
  O   O4        1.0  0.2483375025381251  0.7516630520646346  0.7516648994527066  1.0000
  O   O5        1.0  0.24833565135579996  0.7516632544042411  0.24833627168789577  1.0000
  O   O6        1.0  0.7516628204844648  0.24833482146767963  0.7516654046302017  1.0000
