data_image0
_chemical_formula_structural       Hf2CrO6
_chemical_formula_sum              "Hf2 Cr1 O6"
_cell_length_a       4.875727840015069
_cell_length_b       4.875727845127908
_cell_length_c       4.875727780592652
_cell_angle_alpha    59.999999967831066
_cell_angle_beta     59.99999891201871
_cell_angle_gamma    60.000000315370976

_space_group_name_H-M_alt    "P 1"
_space_group_IT_number       1

loop_
  _space_group_symop_operation_xyz
  'x, y, z'

loop_
  _atom_site_type_symbol
  _atom_site_label
  _atom_site_symmetry_multiplicity
  _atom_site_fract_x
  _atom_site_fract_y
  _atom_site_fract_z
  _atom_site_occupancy
  Hf  Hf1       1.0  0.2499999999949954  0.24999996343516506  0.2500000678441698  1.0000
  Hf  Hf2       1.0  0.750000003309569  0.7499999229604829  0.7500001404212552  1.0000
  Cr  Cr1       1.0  0.9999999628260888  0.9999999623211678  4.563027567519197e-08  1.0000
  O   O1        1.0  0.2604045251312156  0.2604044280052888  0.7395954784311232  1.0000
  O   O2        1.0  0.7395954682897439  0.7395956869752729  0.26040441128410846  1.0000
  O   O3        1.0  0.7395955489391828  0.2604045562193234  0.26040437762903706  1.0000
  O   O4        1.0  0.2604044493619615  0.739595551225472  0.7395955216178887  1.0000
  O   O5        1.0  0.26040446249688276  0.7395954907924946  0.2604045126379364  1.0000
  O   O6        1.0  0.7395955822871436  0.26040445588928457  0.7395954704117427  1.0000
