data_image0
_chemical_formula_structural       Hf2CrSe6
_chemical_formula_sum              "Hf2 Cr1 Se6"
_cell_length_a       6.411017554636323
_cell_length_b       6.411017660593639
_cell_length_c       6.411017800553795
_cell_angle_alpha    59.99999935377498
_cell_angle_beta     59.99999892645283
_cell_angle_gamma    60.00000043696568

_space_group_name_H-M_alt    "P 1"
_space_group_IT_number       1

loop_
  _space_group_symop_operation_xyz
  'x, y, z'

loop_
  _atom_site_type_symbol
  _atom_site_label
  _atom_site_symmetry_multiplicity
  _atom_site_fract_x
  _atom_site_fract_y
  _atom_site_fract_z
  _atom_site_occupancy
  Hf  Hf1       1.0  0.2499999193190746  0.2500000309447855  0.2499999972607806  1.0000
  Hf  Hf2       1.0  0.7500000732997936  0.7500000221504788  0.7499999427642883  1.0000
  Cr  Cr1       1.0  2.839962438045026e-08  0.9999999904481245  0.9999999890163108  1.0000
  Se  Se1       1.0  0.2541117763397491  0.25411171424759776  0.7458882676194596  1.0000
  Se  Se2       1.0  0.7458882267050435  0.7458882643430362  0.25411174500014533  1.0000
  Se  Se3       1.0  0.7458882837201466  0.2541117523150488  0.25411176553992093  1.0000
  Se  Se4       1.0  0.2541117521818123  0.7458882033510839  0.7458882623909431  1.0000
  Se  Se5       1.0  0.2541116637063891  0.7458882281255823  0.2541118418772181  1.0000
  Se  Se6       1.0  0.7458882706586247  0.25411179440367926  0.7458881924718507  1.0000
