data_image0
_chemical_formula_structural       Hf2CoSe6
_chemical_formula_sum              "Hf2 Co1 Se6"
_cell_length_a       6.366673901984941
_cell_length_b       6.366673734790902
_cell_length_c       6.366673611050072
_cell_angle_alpha    60.00000022670581
_cell_angle_beta     60.000001143548715
_cell_angle_gamma    60.000000965123974

_space_group_name_H-M_alt    "P 1"
_space_group_IT_number       1

loop_
  _space_group_symop_operation_xyz
  'x, y, z'

loop_
  _atom_site_type_symbol
  _atom_site_label
  _atom_site_symmetry_multiplicity
  _atom_site_fract_x
  _atom_site_fract_y
  _atom_site_fract_z
  _atom_site_occupancy
  Hf  Hf1       1.0  0.25000013417492906  0.2499996019566321  0.2499999960768656  1.0000
  Hf  Hf2       1.0  0.7500002200388137  0.7500000062467763  0.7500001169807798  1.0000
  Co  Co1       1.0  7.785864531860383e-09  3.847361947752339e-09  0.9999999816179554  1.0000
  Se  Se1       1.0  0.2529053562932091  0.2529054299851986  0.7470946523171685  1.0000
  Se  Se2       1.0  0.747094416859462  0.7470948168802632  0.25290532670449833  1.0000
  Se  Se3       1.0  0.7470945987292597  0.2529054773421436  0.2529052724209102  1.0000
  Se  Se4       1.0  0.25290525494134436  0.7470946367893373  0.7470946463214404  1.0000
  Se  Se5       1.0  0.2529053391768688  0.7470947269230825  0.25290541387589915  1.0000
  Se  Se6       1.0  0.7470946635819599  0.2529053044901208  0.7470946020478277  1.0000
