data_image0
_chemical_formula_structural       Hf2CrS6
_chemical_formula_sum              "Hf2 Cr1 S6"
_cell_length_a       6.131090915511788
_cell_length_b       6.131090955335433
_cell_length_c       6.1310908128139845
_cell_angle_alpha    60.000000374199935
_cell_angle_beta     60.00000119705433
_cell_angle_gamma    60.00000100482772

_space_group_name_H-M_alt    "P 1"
_space_group_IT_number       1

loop_
  _space_group_symop_operation_xyz
  'x, y, z'

loop_
  _atom_site_type_symbol
  _atom_site_label
  _atom_site_symmetry_multiplicity
  _atom_site_fract_x
  _atom_site_fract_y
  _atom_site_fract_z
  _atom_site_occupancy
  Hf  Hf1       1.0  0.25000011128669725  0.24999992459342615  0.24999989667025557  1.0000
  Hf  Hf2       1.0  0.7499999297877405  0.7500002232395905  0.7499998744582368  1.0000
  Cr  Cr1       1.0  0.9999999711588893  6.392310274161387e-08  0.9999999498383809  1.0000
  S   S1        1.0  0.2578566148099669  0.25785645004978586  0.7421434235569867  1.0000
  S   S2        1.0  0.7421432805250249  0.742143603896172  0.2578565831879683  1.0000
  S   S3        1.0  0.7421435016435408  0.25785652244422  0.2578566074800243  1.0000
  S   S4        1.0  0.25785652033640755  0.7421433097684751  0.7421435838157003  1.0000
  S   S5        1.0  0.25785653373603823  0.7421434409585289  0.2578565647683559  1.0000
  S   S6        1.0  0.7421435298473495  0.2578564811460301  0.7421435069556895  1.0000
