data_image0
_chemical_formula_structural       Hf2CoS6
_chemical_formula_sum              "Hf2 Co1 S6"
_cell_length_a       5.94193457360875
_cell_length_b       5.9419342931480434
_cell_length_c       5.941934548949894
_cell_angle_alpha    59.999998974183974
_cell_angle_beta     59.99999935932024
_cell_angle_gamma    59.99999912729439

_space_group_name_H-M_alt    "P 1"
_space_group_IT_number       1

loop_
  _space_group_symop_operation_xyz
  'x, y, z'

loop_
  _atom_site_type_symbol
  _atom_site_label
  _atom_site_symmetry_multiplicity
  _atom_site_fract_x
  _atom_site_fract_y
  _atom_site_fract_z
  _atom_site_occupancy
  Hf  Hf1       1.0  0.25000037601897185  0.2500000524756041  0.24999972369590356  1.0000
  Hf  Hf2       1.0  0.7499995905505894  0.7499999719198038  0.7500000258625722  1.0000
  Co  Co1       1.0  0.9999999729890074  5.771328880889132e-08  2.6722691628646785e-08  1.0000
  S   S1        1.0  0.2575926450749911  0.2575929133799195  0.7424072959430328  1.0000
  S   S2        1.0  0.7424073943602171  0.7424070265067481  0.25759288354129023  1.0000
  S   S3        1.0  0.7424069421541059  0.2575927433942271  0.25759284216486544  1.0000
  S   S4        1.0  0.257592997839009  0.7424071800029267  0.7424071293785963  1.0000
  S   S5        1.0  0.257593023395507  0.742407219673766  0.25759266027654426  1.0000
  S   S6        1.0  0.7424070842305467  0.25759281296640085  0.7424073495390666  1.0000
