data_image0
_chemical_formula_structural       Hf2CS6
_chemical_formula_sum              "Hf2 C1 S6"
_cell_length_a       6.11969449168395
_cell_length_b       6.119694526085624
_cell_length_c       6.119694480841535
_cell_angle_alpha    60.00000114978344
_cell_angle_beta     60.00000052722426
_cell_angle_gamma    60.000000647655085

_space_group_name_H-M_alt    "P 1"
_space_group_IT_number       1

loop_
  _space_group_symop_operation_xyz
  'x, y, z'

loop_
  _atom_site_type_symbol
  _atom_site_label
  _atom_site_symmetry_multiplicity
  _atom_site_fract_x
  _atom_site_fract_y
  _atom_site_fract_z
  _atom_site_occupancy
  Hf  Hf1       1.0  0.24999995782829407  0.25000004195662573  0.25000000917074555  1.0000
  Hf  Hf2       1.0  0.7499999643223406  0.7500000458171967  0.7499998881262303  1.0000
  C   C1        1.0  9.249540380828176e-08  0.9999999319552222  0.9999999322163577  1.0000
  S   S1        1.0  0.2324060198962865  0.23240608241076288  0.7675939347812919  1.0000
  S   S2        1.0  0.767593983543051  0.7675939313143325  0.2324061010596555  1.0000
  S   S3        1.0  0.7675939911923602  0.23240597941701618  0.23240607359219975  1.0000
  S   S4        1.0  0.2324060474891201  0.7675939342422305  0.7675940175375591  1.0000
  S   S5        1.0  0.23240600425937902  0.7675939997440463  0.23240608480619102  1.0000
  S   S6        1.0  0.7675939304518063  0.23240605600870573  0.7675939643850043  1.0000
