data_image0
_chemical_formula_structural       Hf2CoO6
_chemical_formula_sum              "Hf2 Co1 O6"
_cell_length_a       4.843893969506385
_cell_length_b       4.843893939771993
_cell_length_c       4.843893897410391
_cell_angle_alpha    60.00000112129128
_cell_angle_beta     60.00000125824982
_cell_angle_gamma    59.999999913203894

_space_group_name_H-M_alt    "P 1"
_space_group_IT_number       1

loop_
  _space_group_symop_operation_xyz
  'x, y, z'

loop_
  _atom_site_type_symbol
  _atom_site_label
  _atom_site_symmetry_multiplicity
  _atom_site_fract_x
  _atom_site_fract_y
  _atom_site_fract_z
  _atom_site_occupancy
  Hf  Hf1       1.0  0.24999998231091178  0.2500001509445489  0.24999996762541446  1.0000
  Hf  Hf2       1.0  0.7500000238269414  0.7499998788799465  0.7499998438022223  1.0000
  Co  Co1       1.0  8.232673880825016e-08  0.9999999747156955  0.9999999797366024  1.0000
  O   O1        1.0  0.2601727571334152  0.26017269201629933  0.7398273224551684  1.0000
  O   O2        1.0  0.739827212379414  0.7398273833199452  0.26017277974614206  1.0000
  O   O3        1.0  0.7398272822108639  0.260172671169154  0.260172701872538  1.0000
  O   O4        1.0  0.26017272790145535  0.73982727521714  0.7398273598613553  1.0000
  O   O5        1.0  0.2601726057891597  0.7398272442686158  0.26017277235337194  1.0000
  O   O6        1.0  0.739827305454235  0.2601727198166913  0.7398272886763807  1.0000
