data_image0
_chemical_formula_structural       Hf2CO6
_chemical_formula_sum              "Hf2 C1 O6"
_cell_length_a       4.704428198781178
_cell_length_b       4.704427862824465
_cell_length_c       4.704428005183019
_cell_angle_alpha    59.99999952516957
_cell_angle_beta     59.99999986960279
_cell_angle_gamma    60.0000004794875

_space_group_name_H-M_alt    "P 1"
_space_group_IT_number       1

loop_
  _space_group_symop_operation_xyz
  'x, y, z'

loop_
  _atom_site_type_symbol
  _atom_site_label
  _atom_site_symmetry_multiplicity
  _atom_site_fract_x
  _atom_site_fract_y
  _atom_site_fract_z
  _atom_site_occupancy
  Hf  Hf1       1.0  0.25000000039701137  0.2499999306180719  0.25000005337392356  1.0000
  Hf  Hf2       1.0  0.7500000552366777  0.7499999610744056  0.7500000272322848  1.0000
  C   C1        1.0  0.999999828304169  2.941827830934247e-07  0.9999996624211259  1.0000
  O   O1        1.0  0.2382254795813293  0.2382255042963487  0.7617745201007079  1.0000
  O   O2        1.0  0.7617745081686919  0.761774429050327  0.23822551410184198  1.0000
  O   O3        1.0  0.761774476413141  0.238225575134761  0.23822554388705922  1.0000
  O   O4        1.0  0.23822549940888116  0.7617745118117792  0.7617744896262374  1.0000
  O   O5        1.0  0.238225648146183  0.7617743469310925  0.23822565025325704  1.0000
  O   O6        1.0  0.7617745678253557  0.23822541719540238  0.7617746180300808  1.0000
