data_image0
_chemical_formula_structural       Hf2CrTe6
_chemical_formula_sum              "Hf2 Cr1 Te6"
_cell_length_a       6.943670291464841
_cell_length_b       6.943670254301307
_cell_length_c       6.9436701620508465
_cell_angle_alpha    60.00000085123001
_cell_angle_beta     60.00000077541304
_cell_angle_gamma    59.999999589197124

_space_group_name_H-M_alt    "P 1"
_space_group_IT_number       1

loop_
  _space_group_symop_operation_xyz
  'x, y, z'

loop_
  _atom_site_type_symbol
  _atom_site_label
  _atom_site_symmetry_multiplicity
  _atom_site_fract_x
  _atom_site_fract_y
  _atom_site_fract_z
  _atom_site_occupancy
  Hf  Hf1       1.0  0.25000002211002814  0.2499999286280222  0.25000003132207416  1.0000
  Hf  Hf2       1.0  0.7499999980421462  0.7500001404137454  0.7499999738879223  1.0000
  Cr  Cr1       1.0  0.999999996656784  2.998509696171808e-08  0.9999999319529579  1.0000
  Te  Te1       1.0  0.25349683885538443  0.2534968490991922  0.7465031553804111  1.0000
  Te  Te2       1.0  0.7465031705150355  0.7465030876553819  0.2534968435953879  1.0000
  Te  Te3       1.0  0.7465031625089322  0.25349678322425884  0.25349682631836734  1.0000
  Te  Te4       1.0  0.25349679850032664  0.7465032187919979  0.746503194450543  1.0000
  Te  Te5       1.0  0.253496827439332  0.7465032044399904  0.2534967885079297  1.0000
  Te  Te6       1.0  0.7465031881794041  0.2534967534805347  0.7465032543671588  1.0000
