data_image0
_chemical_formula_structural       Hf2FeS6
_chemical_formula_sum              "Hf2 Fe1 S6"
_cell_length_a       6.087974283094511
_cell_length_b       6.087974406302855
_cell_length_c       6.087974325526024
_cell_angle_alpha    59.99999937183719
_cell_angle_beta     59.99999927608868
_cell_angle_gamma    59.99999898423194

_space_group_name_H-M_alt    "P 1"
_space_group_IT_number       1

loop_
  _space_group_symop_operation_xyz
  'x, y, z'

loop_
  _atom_site_type_symbol
  _atom_site_label
  _atom_site_symmetry_multiplicity
  _atom_site_fract_x
  _atom_site_fract_y
  _atom_site_fract_z
  _atom_site_occupancy
  Hf  Hf1       1.0  0.2500000944401091  0.24999974625059307  0.2499997313102494  1.0000
  Hf  Hf2       1.0  0.7499999553501359  0.7500001259310854  0.749999421884173  1.0000
  Fe  Fe1       1.0  0.999999969002104  0.9999999678120883  8.579812624864928e-08  1.0000
  S   S1        1.0  0.2534017198978732  0.2534017096198472  0.7465982747747669  1.0000
  S   S2        1.0  0.746598170432152  0.7465984019594127  0.25340195376448116  1.0000
  S   S3        1.0  0.7465983932081397  0.2534015480952531  0.25340190086745845  1.0000
  S   S4        1.0  0.253401912408657  0.746598136994176  0.746598362839806  1.0000
  S   S5        1.0  0.253401650527524  0.7465985544483499  0.2534018638051422  1.0000
  S   S6        1.0  0.7465981325489401  0.25340181061071254  0.7465983819630202  1.0000
