data_image0
_chemical_formula_structural       Hf2FeTe6
_chemical_formula_sum              "Hf2 Fe1 Te6"
_cell_length_a       6.880698839293653
_cell_length_b       6.88069899209126
_cell_length_c       6.880698980055993
_cell_angle_alpha    59.999999679102814
_cell_angle_beta     59.99999946626384
_cell_angle_gamma    60.00000053127854

_space_group_name_H-M_alt    "P 1"
_space_group_IT_number       1

loop_
  _space_group_symop_operation_xyz
  'x, y, z'

loop_
  _atom_site_type_symbol
  _atom_site_label
  _atom_site_symmetry_multiplicity
  _atom_site_fract_x
  _atom_site_fract_y
  _atom_site_fract_z
  _atom_site_occupancy
  Hf  Hf1       1.0  0.24999997833883308  0.24999999834756542  0.2500000330073967  1.0000
  Hf  Hf2       1.0  0.7499999464089161  0.7499999256238046  0.7500001338487908  1.0000
  Fe  Fe1       1.0  0.9999999811329003  2.1359658879248185e-08  1.1833786776106278e-08  1.0000
  Te  Te1       1.0  0.24616078062396526  0.2461607467193671  0.7538392198948431  1.0000
  Te  Te2       1.0  0.753839213961344  0.7538392698105266  0.24616071461586755  1.0000
  Te  Te3       1.0  0.7538392707960827  0.24616081262455397  0.2461607183575961  1.0000
  Te  Te4       1.0  0.2461607661332878  0.7538392128051977  0.7538391992511992  1.0000
  Te  Te5       1.0  0.2461608091992823  0.7538392223792191  0.24616073646345119  1.0000
  Te  Te6       1.0  0.7538392435287706  0.24616079593064596  0.7538392334862342  1.0000
