data_image0
_chemical_formula_structural       Hf2FeO6
_chemical_formula_sum              "Hf2 Fe1 O6"
_cell_length_a       4.878398636847688
_cell_length_b       4.878398546223772
_cell_length_c       4.878398694159882
_cell_angle_alpha    59.99999714024219
_cell_angle_beta     59.99999697528495
_cell_angle_gamma    59.99999945878752

_space_group_name_H-M_alt    "P 1"
_space_group_IT_number       1

loop_
  _space_group_symop_operation_xyz
  'x, y, z'

loop_
  _atom_site_type_symbol
  _atom_site_label
  _atom_site_symmetry_multiplicity
  _atom_site_fract_x
  _atom_site_fract_y
  _atom_site_fract_z
  _atom_site_occupancy
  Hf  Hf1       1.0  0.25000032330029753  0.2500000397087565  0.24999944778164518  1.0000
  Hf  Hf2       1.0  0.7500002928133361  0.7499996295695687  0.7500003410656265  1.0000
  Fe  Fe1       1.0  0.9999999717399836  0.9999999924683582  2.404538863575968e-08  1.0000
  O   O1        1.0  0.25839358010503516  0.2583940910240027  0.7416060502668493  1.0000
  O   O2        1.0  0.7416060935864655  0.7416062184438005  0.25839372160881696  1.0000
  O   O3        1.0  0.7416063624822358  0.25839376409111064  0.2583940435062247  1.0000
  O   O4        1.0  0.2583937044909651  0.7416061537313583  0.741606094474936  1.0000
  O   O5        1.0  0.2583939695241958  0.7416061214300614  0.2583937874321308  1.0000
  O   O6        1.0  0.7416056492759153  0.2583940047678022  0.7416065401428839  1.0000
