data_image0
_chemical_formula_structural       Hf2GeS6
_chemical_formula_sum              "Hf2 Ge1 S6"
_cell_length_a       6.282213084895004
_cell_length_b       6.282213069853973
_cell_length_c       6.282213161117171
_cell_angle_alpha    59.99999851726858
_cell_angle_beta     59.99999869971988
_cell_angle_gamma    59.99999822507397

_space_group_name_H-M_alt    "P 1"
_space_group_IT_number       1

loop_
  _space_group_symop_operation_xyz
  'x, y, z'

loop_
  _atom_site_type_symbol
  _atom_site_label
  _atom_site_symmetry_multiplicity
  _atom_site_fract_x
  _atom_site_fract_y
  _atom_site_fract_z
  _atom_site_occupancy
  Hf  Hf1       1.0  0.2499999617463264  0.2499997346341871  0.2500002611464403  1.0000
  Hf  Hf2       1.0  0.7499999745446708  0.7500001435826295  0.74999982801902  1.0000
  Ge  Ge1       1.0  2.109136223378044e-08  0.9999999863531939  0.9999999962777218  1.0000
  S   S1        1.0  0.25457054714701205  0.25457063273050096  0.7454294157766332  1.0000
  S   S2        1.0  0.7454293461042657  0.7454294462893171  0.25457065977080906  1.0000
  S   S3        1.0  0.7454293499444411  0.25457049584161906  0.25457072036578143  1.0000
  S   S4        1.0  0.25457070032134227  0.7454295422377802  0.7454292239220139  1.0000
  S   S5        1.0  0.25457057172086  0.7454294506193804  0.25457063170566224  1.0000
  S   S6        1.0  0.7454295324057805  0.2545705582168631  0.7454292891307122  1.0000
