data_image0
_chemical_formula_structural       Hf2GeO6
_chemical_formula_sum              "Hf2 Ge1 O6"
_cell_length_a       4.944293644736541
_cell_length_b       4.944293636456683
_cell_length_c       4.9442934926228395
_cell_angle_alpha    60.000000178517965
_cell_angle_beta     60.00000177356802
_cell_angle_gamma    60.00000058751096

_space_group_name_H-M_alt    "P 1"
_space_group_IT_number       1

loop_
  _space_group_symop_operation_xyz
  'x, y, z'

loop_
  _atom_site_type_symbol
  _atom_site_label
  _atom_site_symmetry_multiplicity
  _atom_site_fract_x
  _atom_site_fract_y
  _atom_site_fract_z
  _atom_site_occupancy
  Hf  Hf1       1.0  0.2500001445744319  0.24999994455355817  0.24999999657990307  1.0000
  Hf  Hf2       1.0  0.749999688319262  0.7500000590756492  0.750000227486363  1.0000
  Ge  Ge1       1.0  0.9999999369193376  4.2110490016228346e-08  3.7241727592514015e-10  1.0000
  O   O1        1.0  0.25755282069487384  0.2575525640870301  0.742447296911504  1.0000
  O   O2        1.0  0.7424473356445022  0.742447337981586  0.25755266249966113  1.0000
  O   O3        1.0  0.7424472780998734  0.25755275645863274  0.25755257320000813  1.0000
  O   O4        1.0  0.2575527267649399  0.7424472917581547  0.7424473747166155  1.0000
  O   O5        1.0  0.25755272909895655  0.742447371764193  0.2575525202477518  1.0000
  O   O6        1.0  0.7424473262020522  0.25755264425045604  0.7424473497856993  1.0000
