data_image0
_chemical_formula_structural       Hf2GeTe6
_chemical_formula_sum              "Hf2 Ge1 Te6"
_cell_length_a       7.119379323778491
_cell_length_b       7.1193793576350055
_cell_length_c       7.119379318393015
_cell_angle_alpha    60.00000153639469
_cell_angle_beta     60.0000003240015
_cell_angle_gamma    59.999999361515236

_space_group_name_H-M_alt    "P 1"
_space_group_IT_number       1

loop_
  _space_group_symop_operation_xyz
  'x, y, z'

loop_
  _atom_site_type_symbol
  _atom_site_label
  _atom_site_symmetry_multiplicity
  _atom_site_fract_x
  _atom_site_fract_y
  _atom_site_fract_z
  _atom_site_occupancy
  Hf  Hf1       1.0  0.2499999797818981  0.2500000383425774  0.25000003209848454  1.0000
  Hf  Hf2       1.0  0.7500001410559705  0.7499999137529498  0.7499998797667136  1.0000
  Ge  Ge1       1.0  2.8047547775703792e-08  3.4405935258828345e-09  0.9999999533543592  1.0000
  Te  Te1       1.0  0.2616094941951574  0.2616095863489237  0.7383904646265402  1.0000
  Te  Te2       1.0  0.7383904710038015  0.7383904190758223  0.26160963183210234  1.0000
  Te  Te3       1.0  0.7383904396364775  0.2616095333518541  0.26160950759884816  1.0000
  Te  Te4       1.0  0.26160947526633477  0.7383905013179441  0.7383904996575469  1.0000
  Te  Te5       1.0  0.26160947353478126  0.7383904584117909  0.2616095712507431  1.0000
  Te  Te6       1.0  0.7383905046394722  0.2616095470129541  0.7383904555124956  1.0000
