data_image0
_chemical_formula_structural       Hf2GeSe6
_chemical_formula_sum              "Hf2 Ge1 Se6"
_cell_length_a       6.5445784825986175
_cell_length_b       6.544578422971009
_cell_length_c       6.5445784074580935
_cell_angle_alpha    59.99999909313247
_cell_angle_beta     60.000000096660195
_cell_angle_gamma    60.00000016957287

_space_group_name_H-M_alt    "P 1"
_space_group_IT_number       1

loop_
  _space_group_symop_operation_xyz
  'x, y, z'

loop_
  _atom_site_type_symbol
  _atom_site_label
  _atom_site_symmetry_multiplicity
  _atom_site_fract_x
  _atom_site_fract_y
  _atom_site_fract_z
  _atom_site_occupancy
  Hf  Hf1       1.0  0.24999993730829898  0.2500000803930623  0.24999991636784297  1.0000
  Hf  Hf2       1.0  0.7500002294459744  0.7499997190617931  0.7500002842440981  1.0000
  Ge  Ge1       1.0  0.9999999804666291  3.7427770069551797e-08  0.9999999742449949  1.0000
  Se  Se1       1.0  0.2581366125098455  0.25813683894091694  0.7418632660765727  1.0000
  Se  Se2       1.0  0.741863284630189  0.7418632823927618  0.2581365997506488  1.0000
  Se  Se3       1.0  0.7418633232104304  0.25813679688186014  0.25813665680896203  1.0000
  Se  Se4       1.0  0.2581366682083364  0.7418632533390555  0.7418632982821073  1.0000
  Se  Se5       1.0  0.2581367654096525  0.7418632675813653  0.258136642785384  1.0000
  Se  Se6       1.0  0.7418632066378582  0.2581367190123409  0.7418633492209719  1.0000
