data_image0
_chemical_formula_structural       Hf2IrS6
_chemical_formula_sum              "Hf2 Ir1 S6"
_cell_length_a       6.2951406531637755
_cell_length_b       6.2951406405343615
_cell_length_c       6.295140766451167
_cell_angle_alpha    60.00000142028454
_cell_angle_beta     60.000001520317895
_cell_angle_gamma    60.0000013694336

_space_group_name_H-M_alt    "P 1"
_space_group_IT_number       1

loop_
  _space_group_symop_operation_xyz
  'x, y, z'

loop_
  _atom_site_type_symbol
  _atom_site_label
  _atom_site_symmetry_multiplicity
  _atom_site_fract_x
  _atom_site_fract_y
  _atom_site_fract_z
  _atom_site_occupancy
  Hf  Hf1       1.0  0.24999991246855996  0.24999932764156946  0.250000339707514  1.0000
  Hf  Hf2       1.0  0.7499998384581046  0.7500001230188125  0.7499998080032837  1.0000
  Ir  Ir1       1.0  0.9999999455821504  6.420282419439364e-08  7.929943474741518e-08  1.0000
  S   S1        1.0  0.25758820864921605  0.2575881383624861  0.7424118415835069  1.0000
  S   S2        1.0  0.7424117296208923  0.7424120049101736  0.2575880488300294  1.0000
  S   S3        1.0  0.7424121097018825  0.2575880513886324  0.2575882843814436  1.0000
  S   S4        1.0  0.2575882690511364  0.7424122066708964  0.7424114062350262  1.0000
  S   S5        1.0  0.2575881358651964  0.7424118158327975  0.2575882872886228  1.0000
  S   S6        1.0  0.7424118093351184  0.257588284637984  0.7424118704594608  1.0000
