data_image0
_chemical_formula_structural       Hf2IrSe6
_chemical_formula_sum              "Hf2 Ir1 Se6"
_cell_length_a       6.613579641569835
_cell_length_b       6.6135794676021495
_cell_length_c       6.613579542063595
_cell_angle_alpha    59.99999974973091
_cell_angle_beta     59.999999261095404
_cell_angle_gamma    59.99999952744229

_space_group_name_H-M_alt    "P 1"
_space_group_IT_number       1

loop_
  _space_group_symop_operation_xyz
  'x, y, z'

loop_
  _atom_site_type_symbol
  _atom_site_label
  _atom_site_symmetry_multiplicity
  _atom_site_fract_x
  _atom_site_fract_y
  _atom_site_fract_z
  _atom_site_occupancy
  Hf  Hf1       1.0  0.24999982996651077  0.2500001740328833  0.24999999271461315  1.0000
  Hf  Hf2       1.0  0.7500001092111598  0.7499999683913592  0.7500000043112436  1.0000
  Ir  Ir1       1.0  1.2133939258965196e-08  0.9999999740739061  0.9999999993358748  1.0000
  Se  Se1       1.0  0.25535249389271186  0.25535248954402645  0.7446475148911704  1.0000
  Se  Se2       1.0  0.7446475767460021  0.7446474732494223  0.2553524306175359  1.0000
  Se  Se3       1.0  0.7446475045105749  0.25535250774990725  0.2553525399094403  1.0000
  Se  Se4       1.0  0.25535243660981616  0.7446474717103163  0.7446475527474701  1.0000
  Se  Se5       1.0  0.2553525281361621  0.744647435412707  0.25535250729616504  1.0000
  Se  Se6       1.0  0.7446475127335966  0.2553525014546474  0.7446474630359852  1.0000
