data_image0
_chemical_formula_structural       Hf2IrO6
_chemical_formula_sum              "Hf2 Ir1 O6"
_cell_length_a       5.015282576395988
_cell_length_b       5.015282584312235
_cell_length_c       5.015282409755982
_cell_angle_alpha    59.999998949582974
_cell_angle_beta     59.99999882340291
_cell_angle_gamma    60.00000094956794

_space_group_name_H-M_alt    "P 1"
_space_group_IT_number       1

loop_
  _space_group_symop_operation_xyz
  'x, y, z'

loop_
  _atom_site_type_symbol
  _atom_site_label
  _atom_site_symmetry_multiplicity
  _atom_site_fract_x
  _atom_site_fract_y
  _atom_site_fract_z
  _atom_site_occupancy
  Hf  Hf1       1.0  0.25000053388975113  0.249999968029043  0.24999957012636717  1.0000
  Hf  Hf2       1.0  0.7500002287702733  0.7499994571963955  0.7500003520373678  1.0000
  Ir  Ir1       1.0  0.9999999589524738  1.953620457993246e-08  6.767849856202312e-09  1.0000
  O   O1        1.0  0.26673323772044194  0.2667336894674546  0.7332664097884175  1.0000
  O   O2        1.0  0.7332664624202244  0.7332665196482038  0.2667334782200992  1.0000
  O   O3        1.0  0.7332665363322186  0.26673349685234343  0.26673352706839415  1.0000
  O   O4        1.0  0.26673326846433587  0.7332665364374675  0.7332665141655373  1.0000
  O   O5        1.0  0.26673361650643435  0.7332666295409647  0.2667333112329524  1.0000
  O   O6        1.0  0.7332661144467418  0.26673369434989413  0.733266886811594  1.0000
