data_image0
_chemical_formula_structural       Hf2MoS6
_chemical_formula_sum              "Hf2 Mo1 S6"
_cell_length_a       6.246926390886569
_cell_length_b       6.246926273640453
_cell_length_c       6.246926416968117
_cell_angle_alpha    60.000000527955855
_cell_angle_beta     60.000001524116904
_cell_angle_gamma    60.00000087674333

_space_group_name_H-M_alt    "P 1"
_space_group_IT_number       1

loop_
  _space_group_symop_operation_xyz
  'x, y, z'

loop_
  _atom_site_type_symbol
  _atom_site_label
  _atom_site_symmetry_multiplicity
  _atom_site_fract_x
  _atom_site_fract_y
  _atom_site_fract_z
  _atom_site_occupancy
  Hf  Hf1       1.0  0.24999985567266447  0.25000013910343155  0.24999991077866  1.0000
  Hf  Hf2       1.0  0.7500002688865463  0.7500000251991051  0.749999703919494  1.0000
  Mo  Mo1       1.0  0.9999999319637127  0.9999999490255445  1.1713371011942282e-07  1.0000
  S   S1        1.0  0.26300954889364625  0.2630099340686523  0.7369903513087237  1.0000
  S   S2        1.0  0.7369903667001084  0.7369902027861018  0.2630097177613639  1.0000
  S   S3        1.0  0.7369902064879079  0.26300978277201226  0.26300976019422484  1.0000
  S   S4        1.0  0.26300983838710995  0.736990165869368  0.7369902518994078  1.0000
  S   S5        1.0  0.26300967229276695  0.7369900913516222  0.2630099180804506  1.0000
  S   S6        1.0  0.7369903215759245  0.2630096886819441  0.7369902806580368  1.0000
