data_image0
_chemical_formula_structural       Hf2MnS6
_chemical_formula_sum              "Hf2 Mn1 S6"
_cell_length_a       6.098546120011379
_cell_length_b       6.0985462560246555
_cell_length_c       6.098546118744759
_cell_angle_alpha    59.999999193949314
_cell_angle_beta     59.99999965083278
_cell_angle_gamma    59.99999902262006

_space_group_name_H-M_alt    "P 1"
_space_group_IT_number       1

loop_
  _space_group_symop_operation_xyz
  'x, y, z'

loop_
  _atom_site_type_symbol
  _atom_site_label
  _atom_site_symmetry_multiplicity
  _atom_site_fract_x
  _atom_site_fract_y
  _atom_site_fract_z
  _atom_site_occupancy
  Hf  Hf1       1.0  0.2499998309018471  0.2500002022204688  0.25000002421208817  1.0000
  Hf  Hf2       1.0  0.7500001035236664  0.7499997852842505  0.749999889322414  1.0000
  Mn  Mn1       1.0  0.9999999384168287  0.9999999859422014  8.305253897056897e-09  1.0000
  S   S1        1.0  0.2555519534756186  0.25555227585363033  0.7444478359460996  1.0000
  S   S2        1.0  0.7444479102048593  0.7444477477997158  0.2555521949104463  1.0000
  S   S3        1.0  0.7444480018830909  0.2555521765121714  0.2555520358173318  1.0000
  S   S4        1.0  0.2555522363663229  0.7444478310751119  0.7444479682831392  1.0000
  S   S5        1.0  0.2555520385411962  0.7444478731520042  0.25555218771063987  1.0000
  S   S6        1.0  0.7444479817568713  0.25555211234445363  0.7444478954175408  1.0000
