data_image0
_chemical_formula_structural       Hf2MnTe6
_chemical_formula_sum              "Hf2 Mn1 Te6"
_cell_length_a       6.92343439004543
_cell_length_b       6.9234343418744695
_cell_length_c       6.9234343550958615
_cell_angle_alpha    60.00000017808849
_cell_angle_beta     59.99999909376201
_cell_angle_gamma    59.999999902593814

_space_group_name_H-M_alt    "P 1"
_space_group_IT_number       1

loop_
  _space_group_symop_operation_xyz
  'x, y, z'

loop_
  _atom_site_type_symbol
  _atom_site_label
  _atom_site_symmetry_multiplicity
  _atom_site_fract_x
  _atom_site_fract_y
  _atom_site_fract_z
  _atom_site_occupancy
  Hf  Hf1       1.0  0.2500000554938364  0.24999999994731315  0.2500000143927964  1.0000
  Hf  Hf2       1.0  0.7499999997174032  0.7499999697691992  0.7499998686109078  1.0000
  Mn  Mn1       1.0  3.3182713339755817e-09  3.007273812507353e-08  0.9999999890819747  1.0000
  Te  Te1       1.0  0.2523293613337615  0.25232941463972547  0.7476706053575761  1.0000
  Te  Te2       1.0  0.7476705509339056  0.747670558614757  0.25232951200709597  1.0000
  Te  Te3       1.0  0.7476705638700908  0.2523294275571752  0.25232944283530384  1.0000
  Te  Te4       1.0  0.2523294689340092  0.7476706093807525  0.7476705376439625  1.0000
  Te  Te5       1.0  0.25232941068817544  0.7476705600235771  0.2523294552251448  1.0000
  Te  Te6       1.0  0.7476705817184083  0.25232943799668955  0.7476705779110391  1.0000
