data_image0
_chemical_formula_structural       Hf2MnO6
_chemical_formula_sum              "Hf2 Mn1 O6"
_cell_length_a       4.858641562294921
_cell_length_b       4.858641234958912
_cell_length_c       4.858641347298344
_cell_angle_alpha    59.999999952710134
_cell_angle_beta     60.00000000845893
_cell_angle_gamma    59.999999976898295

_space_group_name_H-M_alt    "P 1"
_space_group_IT_number       1

loop_
  _space_group_symop_operation_xyz
  'x, y, z'

loop_
  _atom_site_type_symbol
  _atom_site_label
  _atom_site_symmetry_multiplicity
  _atom_site_fract_x
  _atom_site_fract_y
  _atom_site_fract_z
  _atom_site_occupancy
  Hf  Hf1       1.0  0.24999995238184242  0.2499997820071886  0.2500000997876722  1.0000
  Hf  Hf2       1.0  0.7499998583807937  0.7500001123313748  0.7500000637800587  1.0000
  Mn  Mn1       1.0  2.391007688264866e-08  0.9999999924377331  3.2989865781951653e-08  1.0000
  O   O1        1.0  0.26119221919286856  0.2611920940808252  0.7388078486374509  1.0000
  O   O2        1.0  0.7388078523934202  0.7388078733596629  0.2611920821054551  1.0000
  O   O3        1.0  0.7388078340333802  0.2611921573517626  0.26119214281702774  1.0000
  O   O4        1.0  0.26119224213719067  0.738807860503845  0.738807795415383  1.0000
  O   O5        1.0  0.26119216738568884  0.7388079346563021  0.2611921447283703  1.0000
  O   O6        1.0  0.7388078695813696  0.26119218655029847  0.7388077490811698  1.0000
