data_image0
_chemical_formula_structural       Hf2MoSe6
_chemical_formula_sum              "Hf2 Mo1 Se6"
_cell_length_a       6.570298082704925
_cell_length_b       6.57029786444765
_cell_length_c       6.570297940103253
_cell_angle_alpha    59.99999928278829
_cell_angle_beta     59.999999894240105
_cell_angle_gamma    60.000000714814696

_space_group_name_H-M_alt    "P 1"
_space_group_IT_number       1

loop_
  _space_group_symop_operation_xyz
  'x, y, z'

loop_
  _atom_site_type_symbol
  _atom_site_label
  _atom_site_symmetry_multiplicity
  _atom_site_fract_x
  _atom_site_fract_y
  _atom_site_fract_z
  _atom_site_occupancy
  Hf  Hf1       1.0  0.2500000947877597  0.24999988359774458  0.2500001623297643  1.0000
  Hf  Hf2       1.0  0.7499997473036433  0.7500000124214355  0.7499998928485669  1.0000
  Mo  Mo1       1.0  0.9999999969998363  3.7281258502031e-09  0.999999976806004  1.0000
  Se  Se1       1.0  0.26128156937978914  0.26128156521343376  0.7387183664730012  1.0000
  Se  Se2       1.0  0.7387185191452069  0.7387183718151358  0.26128158759986503  1.0000
  Se  Se3       1.0  0.7387183711907422  0.2612814773280617  0.26128166160170857  1.0000
  Se  Se4       1.0  0.2612816817221347  0.7387185454474026  0.7387183769878414  1.0000
  Se  Se5       1.0  0.261281565676857  0.7387185047721279  0.2612815113013005  1.0000
  Se  Se6       1.0  0.7387184555286608  0.2612816447596161  0.7387184508457701  1.0000
