data_image0
_chemical_formula_structural       Hf2NbO6
_chemical_formula_sum              "Hf2 Nb1 O6"
_cell_length_a       5.056768136803774
_cell_length_b       5.0567680657031095
_cell_length_c       5.0567680873733805
_cell_angle_alpha    59.999999636922794
_cell_angle_beta     59.999999921136194
_cell_angle_gamma    59.99999923960061

_space_group_name_H-M_alt    "P 1"
_space_group_IT_number       1

loop_
  _space_group_symop_operation_xyz
  'x, y, z'

loop_
  _atom_site_type_symbol
  _atom_site_label
  _atom_site_symmetry_multiplicity
  _atom_site_fract_x
  _atom_site_fract_y
  _atom_site_fract_z
  _atom_site_occupancy
  Hf  Hf1       1.0  0.2500000865061851  0.24999999812820894  0.24999993204507182  1.0000
  Hf  Hf2       1.0  0.7500000038365335  0.7500001106402152  0.7499999469278876  1.0000
  Nb  Nb1       1.0  0.9999999959633477  1.2109957061689964e-08  0.9999999821205139  1.0000
  O   O1        1.0  0.2671510460768903  0.2671509446177823  0.7328490078682652  1.0000
  O   O2        1.0  0.7328489863043962  0.7328490503170458  0.2671509787552334  1.0000
  O   O3        1.0  0.7328490016567636  0.26715093824526004  0.26715104813937274  1.0000
  O   O4        1.0  0.26715095054961935  0.732849030047663  0.7328489780496965  1.0000
  O   O5        1.0  0.2671509907346534  0.7328489699584593  0.267151038380522  1.0000
  O   O6        1.0  0.7328489293883242  0.267150964426584  0.7328490801306203  1.0000
