data_image0
_chemical_formula_structural       Hf2NbTe6
_chemical_formula_sum              "Hf2 Nb1 Te6"
_cell_length_a       7.187182822491855
_cell_length_b       7.187182790045748
_cell_length_c       7.187182679990992
_cell_angle_alpha    60.000000170294435
_cell_angle_beta     60.00000057768263
_cell_angle_gamma    59.999999736235324

_space_group_name_H-M_alt    "P 1"
_space_group_IT_number       1

loop_
  _space_group_symop_operation_xyz
  'x, y, z'

loop_
  _atom_site_type_symbol
  _atom_site_label
  _atom_site_symmetry_multiplicity
  _atom_site_fract_x
  _atom_site_fract_y
  _atom_site_fract_z
  _atom_site_occupancy
  Hf  Hf1       1.0  0.24999995022179144  0.24999997631243176  0.24999997333903107  1.0000
  Hf  Hf2       1.0  0.7500000127352775  0.7500001078644415  0.749999965180263  1.0000
  Nb  Nb1       1.0  4.624917638899877e-09  1.0224408654888864e-08  0.9999999243984139  1.0000
  Te  Te1       1.0  0.262505326215805  0.2625053342855499  0.73749468005931  1.0000
  Te  Te2       1.0  0.7374946795211598  0.7374946408309665  0.2625053263843593  1.0000
  Te  Te3       1.0  0.7374947024116488  0.2625052905238211  0.2625053698325225  1.0000
  Te  Te4       1.0  0.26250530634362285  0.7374946948171034  0.7374946995580779  1.0000
  Te  Te5       1.0  0.26250531581752845  0.7374946675181384  0.26250534587877233  1.0000
  Te  Te6       1.0  0.7374947075114187  0.2625052837414247  0.7374947068297214  1.0000
