data_image0
_chemical_formula_structural       Hf2NiSe6
_chemical_formula_sum              "Hf2 Ni1 Se6"
_cell_length_a       6.3661818588027215
_cell_length_b       6.366181745390364
_cell_length_c       6.366181775195804
_cell_angle_alpha    60.00000176027484
_cell_angle_beta     60.00000006862307
_cell_angle_gamma    60.000001053747404

_space_group_name_H-M_alt    "P 1"
_space_group_IT_number       1

loop_
  _space_group_symop_operation_xyz
  'x, y, z'

loop_
  _atom_site_type_symbol
  _atom_site_label
  _atom_site_symmetry_multiplicity
  _atom_site_fract_x
  _atom_site_fract_y
  _atom_site_fract_z
  _atom_site_occupancy
  Hf  Hf1       1.0  0.2500000848155385  0.24999988157107372  0.25000016305411354  1.0000
  Hf  Hf2       1.0  0.7499999282822853  0.7500001987761153  0.7499999071145891  1.0000
  Ni  Ni1       1.0  9.748050525234177e-09  0.9999999326659661  1.936818913713335e-08  1.0000
  Se  Se1       1.0  0.2571533216240541  0.2571532031100517  0.7428467225490206  1.0000
  Se  Se2       1.0  0.7428467900448178  0.7428467175592833  0.25715324622586055  1.0000
  Se  Se3       1.0  0.7428466801073818  0.2571531692360054  0.25715330010757703  1.0000
  Se  Se4       1.0  0.25715317704106466  0.742846845700975  0.7428467283732928  1.0000
  Se  Se5       1.0  0.2571532587876218  0.7428467690746932  0.2571532113666708  1.0000
  Se  Se6       1.0  0.7428467507014734  0.2571532785673896  0.7428466963169187  1.0000
