data_image0
_chemical_formula_structural       Hf2NiO6
_chemical_formula_sum              "Hf2 Ni1 O6"
_cell_length_a       4.843735737958298
_cell_length_b       4.8437356983546875
_cell_length_c       4.843735590739204
_cell_angle_alpha    59.99999937132719
_cell_angle_beta     60.000001542167375
_cell_angle_gamma    59.99999998393837

_space_group_name_H-M_alt    "P 1"
_space_group_IT_number       1

loop_
  _space_group_symop_operation_xyz
  'x, y, z'

loop_
  _atom_site_type_symbol
  _atom_site_label
  _atom_site_symmetry_multiplicity
  _atom_site_fract_x
  _atom_site_fract_y
  _atom_site_fract_z
  _atom_site_occupancy
  Hf  Hf1       1.0  0.2499998877143043  0.24999984008707427  0.2500000673637686  1.0000
  Hf  Hf2       1.0  0.74999995556148  0.74999993746587  0.750000041344789  1.0000
  Ni  Ni1       1.0  0.999999981193166  2.7813643513922863e-08  0.9999999831094613  1.0000
  O   O1        1.0  0.25587562170316364  0.2558754761526066  0.74412444519148  1.0000
  O   O2        1.0  0.744124406984132  0.7441244960958397  0.25587557668968297  1.0000
  O   O3        1.0  0.7441245063064572  0.25587561288099375  0.25587545492617886  1.0000
  O   O4        1.0  0.25587555204531676  0.7441244706220266  0.7441244593340564  1.0000
  O   O5        1.0  0.25587556529100736  0.7441245803003536  0.2558755296799896  1.0000
  O   O6        1.0  0.74412449274674  0.25587556135846495  0.7441244382402499  1.0000
