data_image0
_chemical_formula_structural       Hf2NbSe6
_chemical_formula_sum              "Hf2 Nb1 Se6"
_cell_length_a       6.619831888363691
_cell_length_b       6.619831496372655
_cell_length_c       6.6198318324448415
_cell_angle_alpha    59.999996743573334
_cell_angle_beta     59.99999739771448
_cell_angle_gamma    59.99999491045193

_space_group_name_H-M_alt    "P 1"
_space_group_IT_number       1

loop_
  _space_group_symop_operation_xyz
  'x, y, z'

loop_
  _atom_site_type_symbol
  _atom_site_label
  _atom_site_symmetry_multiplicity
  _atom_site_fract_x
  _atom_site_fract_y
  _atom_site_fract_z
  _atom_site_occupancy
  Hf  Hf1       1.0  0.24999990209337894  0.24999988341971485  0.25000051934006645  1.0000
  Hf  Hf2       1.0  0.7499997796706  0.7500003144504218  0.7500001997782029  1.0000
  Nb  Nb1       1.0  1.0282634114387638e-07  0.9999999740983885  0.9999999086661995  1.0000
  Se  Se1       1.0  0.2614584740338419  0.2614582151677613  0.738541599390498  1.0000
  Se  Se2       1.0  0.738541649592773  0.7385415571759288  0.2614583230200031  1.0000
  Se  Se3       1.0  0.738541661190822  0.26145826311094583  0.26145822296342586  1.0000
  Se  Se4       1.0  0.2614582705196894  0.7385419384594213  0.738541458432184  1.0000
  Se  Se5       1.0  0.2614583923642192  0.7385417086790619  0.2614581846150775  1.0000
  Se  Se6       1.0  0.7385417771765665  0.26145815617037615  0.7385415568001452  1.0000
