data_image0
_chemical_formula_structural       Hf2NiS6
_chemical_formula_sum              "Hf2 Ni1 S6"
_cell_length_a       6.005951259478568
_cell_length_b       6.005951376466329
_cell_length_c       6.005951441362878
_cell_angle_alpha    60.000000270888165
_cell_angle_beta     59.999998398063724
_cell_angle_gamma    60.000001337056645

_space_group_name_H-M_alt    "P 1"
_space_group_IT_number       1

loop_
  _space_group_symop_operation_xyz
  'x, y, z'

loop_
  _atom_site_type_symbol
  _atom_site_label
  _atom_site_symmetry_multiplicity
  _atom_site_fract_x
  _atom_site_fract_y
  _atom_site_fract_z
  _atom_site_occupancy
  Hf  Hf1       1.0  0.250000210767836  0.24999994971243863  0.25000007954109105  1.0000
  Hf  Hf2       1.0  0.750000016197054  0.7499999959610494  0.749999685712482  1.0000
  Ni  Ni1       1.0  1.4914252539176594e-08  2.4470625186473444e-08  0.9999999986227276  1.0000
  S   S1        1.0  0.2562558335213197  0.2562557290183857  0.7437442435330226  1.0000
  S   S2        1.0  0.7437440950916326  0.7437442350080693  0.2562558931571398  1.0000
  S   S3        1.0  0.7437439996724065  0.25625583706510396  0.2562558308481443  1.0000
  S   S4        1.0  0.25625588821619977  0.7437441453143185  0.7437442537571329  1.0000
  S   S5        1.0  0.2562556611625889  0.7437441835600598  0.2562559512626064  1.0000
  S   S6        1.0  0.7437442634285252  0.25625589058420656  0.7437440907541919  1.0000
