data_image0
_chemical_formula_structural       Hf2NbS6
_chemical_formula_sum              "Hf2 Nb1 S6"
_cell_length_a       6.201195590292029
_cell_length_b       6.201195745400536
_cell_length_c       6.201195605964359
_cell_angle_alpha    60.000000845707625
_cell_angle_beta     60.00000138275364
_cell_angle_gamma    59.99999967687798

_space_group_name_H-M_alt    "P 1"
_space_group_IT_number       1

loop_
  _space_group_symop_operation_xyz
  'x, y, z'

loop_
  _atom_site_type_symbol
  _atom_site_label
  _atom_site_symmetry_multiplicity
  _atom_site_fract_x
  _atom_site_fract_y
  _atom_site_fract_z
  _atom_site_occupancy
  Hf  Hf1       1.0  0.25000008152623043  0.249999897450097  0.24999998235469964  1.0000
  Hf  Hf2       1.0  0.7500000916958813  0.7500000281026791  0.7500000072129802  1.0000
  Nb  Nb1       1.0  0.9999999743829568  0.9999999762998317  6.981118849558001e-08  1.0000
  S   S1        1.0  0.2682977673217448  0.26829779566810347  0.7317021836335319  1.0000
  S   S2        1.0  0.7317020820694948  0.7317022187603097  0.2682978331065957  1.0000
  S   S3        1.0  0.7317022224720866  0.268297842706914  0.26829775291859825  1.0000
  S   S4        1.0  0.26829782947076375  0.7317021282711873  0.7317021520190372  1.0000
  S   S5        1.0  0.26829780413214976  0.7317022507794698  0.2682978129396261  1.0000
  S   S6        1.0  0.7317021367808062  0.26829784659953104  0.7317022278332161  1.0000
