data_image0
_chemical_formula_structural       Hf2OsS6
_chemical_formula_sum              "Hf2 Os1 S6"
_cell_length_a       6.049754113512643
_cell_length_b       6.0497541068303935
_cell_length_c       6.049754161154118
_cell_angle_alpha    59.99999964157072
_cell_angle_beta     59.999998225000745
_cell_angle_gamma    59.99999698634776

_space_group_name_H-M_alt    "P 1"
_space_group_IT_number       1

loop_
  _space_group_symop_operation_xyz
  'x, y, z'

loop_
  _atom_site_type_symbol
  _atom_site_label
  _atom_site_symmetry_multiplicity
  _atom_site_fract_x
  _atom_site_fract_y
  _atom_site_fract_z
  _atom_site_occupancy
  Hf  Hf1       1.0  0.2500002066325535  0.24999997275106373  0.24999992872383606  1.0000
  Hf  Hf2       1.0  0.7500002171045441  0.7500002219212976  0.7499990257837503  1.0000
  Os  Os1       1.0  8.656856825258263e-09  0.9999999797554591  0.9999998454567482  1.0000
  S   S1        1.0  0.2702981165842814  0.2702982132507974  0.7297018977908889  1.0000
  S   S2        1.0  0.7297018234711999  0.7297017890984547  0.2702986228681447  1.0000
  S   S3        1.0  0.7297017359579824  0.2702980005739136  0.270298247091611  1.0000
  S   S4        1.0  0.2702979856023401  0.7297020159465211  0.7297020302608298  1.0000
  S   S5        1.0  0.2702979691890201  0.7297019144388645  0.27029840339124905  1.0000
  S   S6        1.0  0.7297019153826989  0.2702979279785226  0.729701980337559  1.0000
