data_image0
_chemical_formula_structural       Hf2OsO6
_chemical_formula_sum              "Hf2 Os1 O6"
_cell_length_a       4.952349314402115
_cell_length_b       4.952349340891736
_cell_length_c       4.95234946144204
_cell_angle_alpha    60.00000028786406
_cell_angle_beta     60.00000102423422
_cell_angle_gamma    60.000001322164366

_space_group_name_H-M_alt    "P 1"
_space_group_IT_number       1

loop_
  _space_group_symop_operation_xyz
  'x, y, z'

loop_
  _atom_site_type_symbol
  _atom_site_label
  _atom_site_symmetry_multiplicity
  _atom_site_fract_x
  _atom_site_fract_y
  _atom_site_fract_z
  _atom_site_occupancy
  Hf  Hf1       1.0  0.2499999671473178  0.24999998218803174  0.25000004719678953  1.0000
  Hf  Hf2       1.0  0.7499998979989418  0.750000208708274  0.7499998426233243  1.0000
  Os  Os1       1.0  8.102090942097362e-09  0.999999982688592  6.623902118728485e-09  1.0000
  O   O1        1.0  0.26817431916763185  0.2681738843253359  0.731825916359622  1.0000
  O   O2        1.0  0.73182590929147  0.7318260839957272  0.2681740282847995  1.0000
  O   O3        1.0  0.7318258653981804  0.2681741031969785  0.2681741087357708  1.0000
  O   O4        1.0  0.2681740640718616  0.7318258527587901  0.7318259956243103  1.0000
  O   O5        1.0  0.26817400539417513  0.7318258257981007  0.2681741903908768  1.0000
  O   O6        1.0  0.7318259614060797  0.2681740881156767  0.7318258618055162  1.0000
