data_image0
_chemical_formula_structural       Hf2OsSe6
_chemical_formula_sum              "Hf2 Os1 Se6"
_cell_length_a       6.576074239000232
_cell_length_b       6.576074075515503
_cell_length_c       6.576074342259642
_cell_angle_alpha    59.99999973604276
_cell_angle_beta     59.99999932426725
_cell_angle_gamma    59.99999920981219

_space_group_name_H-M_alt    "P 1"
_space_group_IT_number       1

loop_
  _space_group_symop_operation_xyz
  'x, y, z'

loop_
  _atom_site_type_symbol
  _atom_site_label
  _atom_site_symmetry_multiplicity
  _atom_site_fract_x
  _atom_site_fract_y
  _atom_site_fract_z
  _atom_site_occupancy
  Hf  Hf1       1.0  0.2500000253469389  0.2500000242906347  0.2500002474287537  1.0000
  Hf  Hf2       1.0  0.7500002366840345  0.7499998437935373  0.7499994961046833  1.0000
  Os  Os1       1.0  3.254676018587987e-08  0.9999999813757443  2.6493357214493583e-08  1.0000
  Se  Se1       1.0  0.2559879066984818  0.25598804191618596  0.7440120392972104  1.0000
  Se  Se2       1.0  0.7440120480448108  0.7440120105481265  0.25598810783941556  1.0000
  Se  Se3       1.0  0.7440119182331979  0.2559878145559278  0.25598814243698126  1.0000
  Se  Se4       1.0  0.2559879829289457  0.7440121932101679  0.7440118941695992  1.0000
  Se  Se5       1.0  0.2559878390700733  0.7440119001453219  0.2559880844698099  1.0000
  Se  Se6       1.0  0.7440120200018786  0.25598819701720366  0.7440119543349416  1.0000
