data_image0
_chemical_formula_structural       Hf2PbO6
_chemical_formula_sum              "Hf2 Pb1 O6"
_cell_length_a       5.354590492462626
_cell_length_b       5.354590445326157
_cell_length_c       5.35459073878859
_cell_angle_alpha    60.000004575994154
_cell_angle_beta     60.000001578911686
_cell_angle_gamma    60.00000938278788

_space_group_name_H-M_alt    "P 1"
_space_group_IT_number       1

loop_
  _space_group_symop_operation_xyz
  'x, y, z'

loop_
  _atom_site_type_symbol
  _atom_site_label
  _atom_site_symmetry_multiplicity
  _atom_site_fract_x
  _atom_site_fract_y
  _atom_site_fract_z
  _atom_site_occupancy
  Hf  Hf1       1.0  0.2500005432131826  0.25000003186299913  0.249999478384389  1.0000
  Hf  Hf2       1.0  0.7499999105571679  0.7499992104114892  0.7499997298128025  1.0000
  Pb  Pb1       1.0  0.9999999936614055  0.9999999931381557  0.999999944970859  1.0000
  O   O1        1.0  0.2648751546596643  0.26487572301148204  0.7351249090768817  1.0000
  O   O2        1.0  0.7351242422239256  0.7351247749797456  0.2648756227833042  1.0000
  O   O3        1.0  0.7351244400690898  0.2648755400765128  0.2648753403710027  1.0000
  O   O4        1.0  0.2648759371669006  0.735124436414937  0.7351248219961425  1.0000
  O   O5        1.0  0.2648752558161905  0.7351245085063064  0.2648755234657146  1.0000
  O   O6        1.0  0.7351244865845273  0.2648758133643748  0.7351247350729875  1.0000
