data_image0
_chemical_formula_structural       Hf2PS6
_chemical_formula_sum              "Hf2 P1 S6"
_cell_length_a       6.0612159493618165
_cell_length_b       6.061215923707328
_cell_length_c       6.061216031293347
_cell_angle_alpha    59.999999051852676
_cell_angle_beta     59.999999734634834
_cell_angle_gamma    60.00000001661894

_space_group_name_H-M_alt    "P 1"
_space_group_IT_number       1

loop_
  _space_group_symop_operation_xyz
  'x, y, z'

loop_
  _atom_site_type_symbol
  _atom_site_label
  _atom_site_symmetry_multiplicity
  _atom_site_fract_x
  _atom_site_fract_y
  _atom_site_fract_z
  _atom_site_occupancy
  Hf  Hf1       1.0  0.24999964368283453  0.25000031882987067  0.2500002847465628  1.0000
  Hf  Hf2       1.0  0.74999995104752  0.7499997825060776  0.7499999281329092  1.0000
  P   P1        1.0  3.56580662879128e-08  0.9999999616081112  4.261276017794118e-08  1.0000
  S   S1        1.0  0.25059770752491856  0.2505977952650162  0.7494022447525981  1.0000
  S   S2        1.0  0.7494022909272275  0.7494021807921402  0.25059780745753374  1.0000
  S   S3        1.0  0.7494021711519281  0.2505977493618979  0.2505977232125107  1.0000
  S   S4        1.0  0.25059796438893117  0.7494021640558622  0.7494022158806011  1.0000
  S   S5        1.0  0.25059777440611336  0.7494021826047222  0.2505977804601153  1.0000
  S   S6        1.0  0.7494024417416748  0.25059786619496227  0.7494019912445473  1.0000
