data_image0
_chemical_formula_structural       Hf2PtS6
_chemical_formula_sum              "Hf2 Pt1 S6"
_cell_length_a       6.246699154542202
_cell_length_b       6.246699149639194
_cell_length_c       6.246699130107356
_cell_angle_alpha    59.9999998680549
_cell_angle_beta     60.000000217407255
_cell_angle_gamma    59.999999955572356

_space_group_name_H-M_alt    "P 1"
_space_group_IT_number       1

loop_
  _space_group_symop_operation_xyz
  'x, y, z'

loop_
  _atom_site_type_symbol
  _atom_site_label
  _atom_site_symmetry_multiplicity
  _atom_site_fract_x
  _atom_site_fract_y
  _atom_site_fract_z
  _atom_site_occupancy
  Hf  Hf1       1.0  0.25000001507354824  0.24999997652562994  0.25000001111719344  1.0000
  Hf  Hf2       1.0  0.750000004720253  0.7500000178051173  0.7500000014834348  1.0000
  Pt  Pt1       1.0  1.1949546462808133e-09  1.9606273430910398e-09  0.9999999760103724  1.0000
  S   S1        1.0  0.25888727210542717  0.2588872906400049  0.7411127231243073  1.0000
  S   S2        1.0  0.7411127103820411  0.741112721336388  0.2588872864999009  1.0000
  S   S3        1.0  0.7411127135075061  0.258887287432962  0.2588872808707935  1.0000
  S   S4        1.0  0.2588872701749168  0.741112726504058  0.7411127223730872  1.0000
  S   S5        1.0  0.2588872829700387  0.7411127201086419  0.25888726581636196  1.0000
  S   S6        1.0  0.7411127291126218  0.2588872585370872  0.7411127280662818  1.0000
