data_image0
_chemical_formula_structural       Hf2PbSe6
_chemical_formula_sum              "Hf2 Pb1 Se6"
_cell_length_a       6.720561123707802
_cell_length_b       6.720561339935641
_cell_length_c       6.720561135396493
_cell_angle_alpha    59.99999783679265
_cell_angle_beta     59.99999804566846
_cell_angle_gamma    60.000000197680386

_space_group_name_H-M_alt    "P 1"
_space_group_IT_number       1

loop_
  _space_group_symop_operation_xyz
  'x, y, z'

loop_
  _atom_site_type_symbol
  _atom_site_label
  _atom_site_symmetry_multiplicity
  _atom_site_fract_x
  _atom_site_fract_y
  _atom_site_fract_z
  _atom_site_occupancy
  Hf  Hf1       1.0  0.25000007754699266  0.2500005773217548  0.24999943865144045  1.0000
  Hf  Hf2       1.0  0.7499999921382737  0.7499993865560026  0.7499999987587631  1.0000
  Pb  Pb1       1.0  6.824108119717879e-08  0.9999999653746907  0.9999999400409552  1.0000
  Se  Se1       1.0  0.27468625571796496  0.2746865659745424  0.7253136313993758  1.0000
  Se  Se2       1.0  0.7253138223496507  0.725313408837501  0.274686592416989  1.0000
  Se  Se3       1.0  0.7253136174727365  0.2746865469564485  0.2746861680862076  1.0000
  Se  Se4       1.0  0.27468629136343886  0.7253135025733781  0.7253138172965563  1.0000
  Se  Se5       1.0  0.2746864796889977  0.7253135355833473  0.2746863901016949  1.0000
  Se  Se6       1.0  0.7253133946797312  0.2746865194136214  0.7253140264130987  1.0000
