data_image0
_chemical_formula_structural       Hf2PdS6
_chemical_formula_sum              "Hf2 Pd1 S6"
_cell_length_a       6.223968428769762
_cell_length_b       6.22396861605362
_cell_length_c       6.223968407618991
_cell_angle_alpha    59.99999853145065
_cell_angle_beta     59.9999994046844
_cell_angle_gamma    59.99999786633701

_space_group_name_H-M_alt    "P 1"
_space_group_IT_number       1

loop_
  _space_group_symop_operation_xyz
  'x, y, z'

loop_
  _atom_site_type_symbol
  _atom_site_label
  _atom_site_symmetry_multiplicity
  _atom_site_fract_x
  _atom_site_fract_y
  _atom_site_fract_z
  _atom_site_occupancy
  Hf  Hf1       1.0  0.25000018612075875  0.24999978296069514  0.2500002544662079  1.0000
  Hf  Hf2       1.0  0.7500001366902485  0.7499997011161056  0.7500003643107939  1.0000
  Pd  Pd1       1.0  3.393785502462237e-08  3.9355763894332154e-09  0.9999999184022976  1.0000
  S   S1        1.0  0.26370392019951305  0.26370419275017365  0.7362958506013467  1.0000
  S   S2        1.0  0.7362958481234418  0.7362960253114728  0.2637039666627086  1.0000
  S   S3        1.0  0.7362958965555414  0.26370419922656957  0.2637039207397825  1.0000
  S   S4        1.0  0.2637039464821084  0.7362960896754329  0.7362958221400535  1.0000
  S   S5        1.0  0.2637041081502064  0.7362959487267419  0.26370398653918786  1.0000
  S   S6        1.0  0.7362959271067092  0.2637040863306386  0.7362959253288389  1.0000
