data_image0
_chemical_formula_structural       Hf2PtSe6
_chemical_formula_sum              "Hf2 Pt1 Se6"
_cell_length_a       6.567272196373714
_cell_length_b       6.567272142122363
_cell_length_c       6.567272020133131
_cell_angle_alpha    60.000000095042054
_cell_angle_beta     59.99999841645679
_cell_angle_gamma    59.99999878161714

_space_group_name_H-M_alt    "P 1"
_space_group_IT_number       1

loop_
  _space_group_symop_operation_xyz
  'x, y, z'

loop_
  _atom_site_type_symbol
  _atom_site_label
  _atom_site_symmetry_multiplicity
  _atom_site_fract_x
  _atom_site_fract_y
  _atom_site_fract_z
  _atom_site_occupancy
  Hf  Hf1       1.0  0.2500001529319235  0.24999987975594085  0.249999749590033  1.0000
  Hf  Hf2       1.0  0.75000000544044  0.7500000551453823  0.7500000395190413  1.0000
  Pt  Pt1       1.0  4.221666343778246e-08  0.9999999682963295  0.9999999536305416  1.0000
  Se  Se1       1.0  0.2569611335546129  0.2569611998201215  0.7430389599595647  1.0000
  Se  Se2       1.0  0.7430388056897047  0.7430388544361971  0.2569610754646307  1.0000
  Se  Se3       1.0  0.7430388508762669  0.25696107485832614  0.25696128786180805  1.0000
  Se  Se4       1.0  0.25696112120834563  0.7430388861519043  0.7430388051739248  1.0000
  Se  Se5       1.0  0.25696121478854583  0.7430388210675904  0.2569612414939269  1.0000
  Se  Se6       1.0  0.7430386740694225  0.2569612630274772  0.7430388879526943  1.0000
