data_image0
_chemical_formula_structural       Hf2PbTe6
_chemical_formula_sum              "Hf2 Pb1 Te6"
_cell_length_a       7.357011119453592
_cell_length_b       7.357011182559053
_cell_length_c       7.357011042778946
_cell_angle_alpha    60.0000009262637
_cell_angle_beta     60.00000223917437
_cell_angle_gamma    60.000000324827575

_space_group_name_H-M_alt    "P 1"
_space_group_IT_number       1

loop_
  _space_group_symop_operation_xyz
  'x, y, z'

loop_
  _atom_site_type_symbol
  _atom_site_label
  _atom_site_symmetry_multiplicity
  _atom_site_fract_x
  _atom_site_fract_y
  _atom_site_fract_z
  _atom_site_occupancy
  Hf  Hf1       1.0  0.2500000321603436  0.2500001047078322  0.24999993551889838  1.0000
  Hf  Hf2       1.0  0.7500000733736133  0.7499998796285624  0.7499998844813802  1.0000
  Pb  Pb1       1.0  6.468511905727118e-09  0.9999999900116104  4.253736849005193e-08  1.0000
  Te  Te1       1.0  0.27575861846071603  0.27575870367095817  0.7242413349695523  1.0000
  Te  Te2       1.0  0.7242413564219267  0.7242413006422153  0.2757587320219115  1.0000
  Te  Te3       1.0  0.7242413205204292  0.2757586429318465  0.27575865961124  1.0000
  Te  Te4       1.0  0.2757587023211346  0.7242412881331387  0.7242413534217228  1.0000
  Te  Te5       1.0  0.27575858348539256  0.7242413364422406  0.2757587099430379  1.0000
  Te  Te6       1.0  0.7242413076085639  0.27575875443697423  0.7242413379895277  1.0000
