data_image0
_chemical_formula_structural       Hf2PbS6
_chemical_formula_sum              "Hf2 Pb1 S6"
_cell_length_a       6.427634659891024
_cell_length_b       6.427634666388519
_cell_length_c       6.427634541316481
_cell_angle_alpha    60.000000004944916
_cell_angle_beta     60.00000047248774
_cell_angle_gamma    60.00000052825603

_space_group_name_H-M_alt    "P 1"
_space_group_IT_number       1

loop_
  _space_group_symop_operation_xyz
  'x, y, z'

loop_
  _atom_site_type_symbol
  _atom_site_label
  _atom_site_symmetry_multiplicity
  _atom_site_fract_x
  _atom_site_fract_y
  _atom_site_fract_z
  _atom_site_occupancy
  Hf  Hf1       1.0  0.2500000031691856  0.25000012671800986  0.2499999319311287  1.0000
  Hf  Hf2       1.0  0.7499999497419271  0.7499999342819238  0.7500002026347029  1.0000
  Pb  Pb1       1.0  0.9999999941934142  0.999999990472818  5.2784570449469174e-08  1.0000
  S   S1        1.0  0.272100086342054  0.27210012301942177  0.7278998732925028  1.0000
  S   S2        1.0  0.7278999585716629  0.7278998236543333  0.27210003284464335  1.0000
  S   S3        1.0  0.727899879103863  0.2721001591668714  0.27210006446241636  1.0000
  S   S4        1.0  0.2721000988674491  0.7278998751569551  0.7278998546576305  1.0000
  S   S5        1.0  0.2721001745843773  0.7278998439222274  0.2721000866207857  1.0000
  S   S6        1.0  0.7278998537252817  0.2721001256167631  0.7278999097327092  1.0000
