data_image0
_chemical_formula_structural       Hf2PdO6
_chemical_formula_sum              "Hf2 Pd1 O6"
_cell_length_a       4.955966785896496
_cell_length_b       4.955966597231142
_cell_length_c       4.955966546963985
_cell_angle_alpha    59.99999536249675
_cell_angle_beta     59.99999657616529
_cell_angle_gamma    59.99999649864301

_space_group_name_H-M_alt    "P 1"
_space_group_IT_number       1

loop_
  _space_group_symop_operation_xyz
  'x, y, z'

loop_
  _atom_site_type_symbol
  _atom_site_label
  _atom_site_symmetry_multiplicity
  _atom_site_fract_x
  _atom_site_fract_y
  _atom_site_fract_z
  _atom_site_occupancy
  Hf  Hf1       1.0  0.2500001800757962  0.24999953110909715  0.25000011473813  1.0000
  Hf  Hf2       1.0  0.7499998791147794  0.7500001922282216  0.7500006037351195  1.0000
  Pd  Pd1       1.0  0.9999999553560216  0.999999938218666  2.0928342243515107e-08  1.0000
  O   O1        1.0  0.26804523506249184  0.26804503728979584  0.7319547594494971  1.0000
  O   O2        1.0  0.7319547632148686  0.731955029551781  0.2680449097317767  1.0000
  O   O3        1.0  0.731954831026883  0.2680454266335105  0.26804483200956797  1.0000
  O   O4        1.0  0.26804498457171677  0.7319548527358534  0.731954993757631  1.0000
  O   O5        1.0  0.2680451767042053  0.7319551295728908  0.26804500560261213  1.0000
  O   O6        1.0  0.7319549441423202  0.26804486313107806  0.7319547987667013  1.0000
