data_image0
_chemical_formula_structural       Hf2PdSe6
_chemical_formula_sum              "Hf2 Pd1 Se6"
_cell_length_a       6.570709993696551
_cell_length_b       6.570710040656934
_cell_length_c       6.5707100144726835
_cell_angle_alpha    60.00000048585454
_cell_angle_beta     59.999999062545704
_cell_angle_gamma    60.00000039901926

_space_group_name_H-M_alt    "P 1"
_space_group_IT_number       1

loop_
  _space_group_symop_operation_xyz
  'x, y, z'

loop_
  _atom_site_type_symbol
  _atom_site_label
  _atom_site_symmetry_multiplicity
  _atom_site_fract_x
  _atom_site_fract_y
  _atom_site_fract_z
  _atom_site_occupancy
  Hf  Hf1       1.0  0.24999956986481778  0.24999986959659148  0.2500003056576119  1.0000
  Hf  Hf2       1.0  0.7499999515165064  0.7499999741231888  0.7499998257049474  1.0000
  Pd  Pd1       1.0  2.9076929533768992e-08  0.9999999496734587  5.171625525286621e-08  1.0000
  Se  Se1       1.0  0.2609652028497924  0.2609651337962348  0.7390348254862066  1.0000
  Se  Se2       1.0  0.7390348923457474  0.7390349075018229  0.2609651499878401  1.0000
  Se  Se3       1.0  0.739034997109825  0.2609651238169473  0.26096517358431237  1.0000
  Se  Se4       1.0  0.2609652906657667  0.7390349249368953  0.7390347901423362  1.0000
  Se  Se5       1.0  0.26096512271294103  0.7390348450918639  0.26096517833826727  1.0000
  Se  Se6       1.0  0.7390349548725687  0.2609652595803568  0.739034711855586  1.0000
