data_image0
_chemical_formula_structural       Hf2PSe6
_chemical_formula_sum              "Hf2 P1 Se6"
_cell_length_a       6.426377186920025
_cell_length_b       6.42637718271287
_cell_length_c       6.426377009078155
_cell_angle_alpha    60.00000101871579
_cell_angle_beta     60.00000033962979
_cell_angle_gamma    60.00000174471174

_space_group_name_H-M_alt    "P 1"
_space_group_IT_number       1

loop_
  _space_group_symop_operation_xyz
  'x, y, z'

loop_
  _atom_site_type_symbol
  _atom_site_label
  _atom_site_symmetry_multiplicity
  _atom_site_fract_x
  _atom_site_fract_y
  _atom_site_fract_z
  _atom_site_occupancy
  Hf  Hf1       1.0  0.2500001149370053  0.24999986799938403  0.2499999696275271  1.0000
  Hf  Hf2       1.0  0.749999992915412  0.7500002176687001  0.7500003428545954  1.0000
  P   P1        1.0  2.7933166922608075e-08  0.9999999485431528  0.9999999541866309  1.0000
  Se  Se1       1.0  0.25274189216555815  0.2527418032155222  0.7472581017969121  1.0000
  Se  Se2       1.0  0.7472581358485825  0.7472581661981997  0.25274174698421953  1.0000
  Se  Se3       1.0  0.7472581324005354  0.2527420072002168  0.2527416731447633  1.0000
  Se  Se4       1.0  0.2527417457866626  0.7472580613155797  0.7472582694666192  1.0000
  Se  Se5       1.0  0.2527418470171065  0.747258240591099  0.2527418169103436  1.0000
  Se  Se6       1.0  0.7472581312499132  0.25274166783672897  0.7472581199151169  1.0000
