data_image0
_chemical_formula_structural       Hf2PtO6
_chemical_formula_sum              "Hf2 Pt1 O6"
_cell_length_a       5.050216925812914
_cell_length_b       5.050216975081073
_cell_length_c       5.050216891036063
_cell_angle_alpha    59.99999782709244
_cell_angle_beta     59.99999845569424
_cell_angle_gamma    59.99999854049245

_space_group_name_H-M_alt    "P 1"
_space_group_IT_number       1

loop_
  _space_group_symop_operation_xyz
  'x, y, z'

loop_
  _atom_site_type_symbol
  _atom_site_label
  _atom_site_symmetry_multiplicity
  _atom_site_fract_x
  _atom_site_fract_y
  _atom_site_fract_z
  _atom_site_occupancy
  Hf  Hf1       1.0  0.2499998314982423  0.24999985372845634  0.25000014780031143  1.0000
  Hf  Hf2       1.0  0.74999959897329  0.7499998376505513  0.7500004628210302  1.0000
  Pt  Pt1       1.0  0.9999999412896118  1.2125666062316364e-07  6.349008633852587e-09  1.0000
  O   O1        1.0  0.2655346960328678  0.26553486429720946  0.7344652680315813  1.0000
  O   O2        1.0  0.7344653774307223  0.7344651205229218  0.26553466250106644  1.0000
  O   O3        1.0  0.7344651886926475  0.2655348733434954  0.26553456603759024  1.0000
  O   O4        1.0  0.26553507583703084  0.7344652036317005  0.734465115958376  1.0000
  O   O5        1.0  0.26553493224890307  0.7344653920037543  0.26553466125102604  1.0000
  O   O6        1.0  0.7344653731354619  0.26553474074950273  0.7344650951955691  1.0000
