data_image0
_chemical_formula_structural       Hf2RuSe6
_chemical_formula_sum              "Hf2 Ru1 Se6"
_cell_length_a       6.568703719439452
_cell_length_b       6.568703820356458
_cell_length_c       6.568703804122135
_cell_angle_alpha    59.999997653551745
_cell_angle_beta     59.99999959466684
_cell_angle_gamma    59.99999877085993

_space_group_name_H-M_alt    "P 1"
_space_group_IT_number       1

loop_
  _space_group_symop_operation_xyz
  'x, y, z'

loop_
  _atom_site_type_symbol
  _atom_site_label
  _atom_site_symmetry_multiplicity
  _atom_site_fract_x
  _atom_site_fract_y
  _atom_site_fract_z
  _atom_site_occupancy
  Hf  Hf1       1.0  0.24999989276089676  0.24999997078417313  0.25000018972256366  1.0000
  Hf  Hf2       1.0  0.7500000198783966  0.7500000055782935  0.7500000518499873  1.0000
  Ru  Ru1       1.0  0.9999999702043451  2.610321577479824e-08  0.9999999668317007  1.0000
  Se  Se1       1.0  0.255979287330715  0.25597928425219857  0.7440206145373958  1.0000
  Se  Se2       1.0  0.7440207228085562  0.7440207107554314  0.2559792020713266  1.0000
  Se  Se3       1.0  0.7440207816808724  0.2559792840537515  0.255979292430849  1.0000
  Se  Se4       1.0  0.2559793116454688  0.7440208041796402  0.7440206140887884  1.0000
  Se  Se5       1.0  0.2559792614370796  0.7440206591689735  0.25597929963339566  1.0000
  Se  Se6       1.0  0.7440207448147826  0.25597926312255215  0.7440207760207873  1.0000
