data_image0
_chemical_formula_structural       Hf2RhO6
_chemical_formula_sum              "Hf2 Rh1 O6"
_cell_length_a       5.002621992582933
_cell_length_b       5.002622220019692
_cell_length_c       5.002622107569436
_cell_angle_alpha    59.999999508949415
_cell_angle_beta     60.000000523142326
_cell_angle_gamma    60.00000034964297

_space_group_name_H-M_alt    "P 1"
_space_group_IT_number       1

loop_
  _space_group_symop_operation_xyz
  'x, y, z'

loop_
  _atom_site_type_symbol
  _atom_site_label
  _atom_site_symmetry_multiplicity
  _atom_site_fract_x
  _atom_site_fract_y
  _atom_site_fract_z
  _atom_site_occupancy
  Hf  Hf1       1.0  0.249999647712224  0.2500003441203099  0.2500000453974854  1.0000
  Hf  Hf2       1.0  0.7500000369836336  0.7499997935687889  0.7500003925686249  1.0000
  Rh  Rh1       1.0  0.9999999694334606  2.9378469942473454e-08  0.9999999866013722  1.0000
  O   O1        1.0  0.26509919081878097  0.2650990832849529  0.7349008475402743  1.0000
  O   O2        1.0  0.7349008611154839  0.7349008805815447  0.265098874042909  1.0000
  O   O3        1.0  0.7349010238572224  0.2650991598586683  0.26509907433644053  1.0000
  O   O4        1.0  0.265099107907637  0.7349008138006468  0.7349008962809384  1.0000
  O   O5        1.0  0.2650991587772292  0.7349007883796492  0.2650990877256382  1.0000
  O   O6        1.0  0.7349009518419111  0.26509912407452335  0.734900794135311  1.0000
