data_image0
_chemical_formula_structural       Hf2ReTe6
_chemical_formula_sum              "Hf2 Re1 Te6"
_cell_length_a       7.103739349163914
_cell_length_b       7.103739242135536
_cell_length_c       7.1037391764553615
_cell_angle_alpha    60.00000123397011
_cell_angle_beta     60.00000053486276
_cell_angle_gamma    59.99999954349456

_space_group_name_H-M_alt    "P 1"
_space_group_IT_number       1

loop_
  _space_group_symop_operation_xyz
  'x, y, z'

loop_
  _atom_site_type_symbol
  _atom_site_label
  _atom_site_symmetry_multiplicity
  _atom_site_fract_x
  _atom_site_fract_y
  _atom_site_fract_z
  _atom_site_occupancy
  Hf  Hf1       1.0  0.24999997394497178  0.25000001657315224  0.2500000456508905  1.0000
  Hf  Hf2       1.0  0.7500000566373642  0.7499999135167575  0.7500000531902347  1.0000
  Re  Re1       1.0  2.9537577243949056e-08  1.3792677424125548e-08  0.9999999431421391  1.0000
  Te  Te1       1.0  0.2580764210803997  0.25807646631671793  0.7419235707546151  1.0000
  Te  Te2       1.0  0.7419235135477048  0.7419235517015147  0.25807641948271814  1.0000
  Te  Te3       1.0  0.7419235599229392  0.25807645334262  0.25807641035872003  1.0000
  Te  Te4       1.0  0.25807642442183154  0.7419235715719513  0.7419235487566918  1.0000
  Te  Te5       1.0  0.2580764434736515  0.7419235573682595  0.25807644628818827  1.0000
  Te  Te6       1.0  0.7419235740540697  0.2580764606499731  0.7419235574000005  1.0000
