data_image0
_chemical_formula_structural       Hf2ReS6
_chemical_formula_sum              "Hf2 Re1 S6"
_cell_length_a       6.117467713650445
_cell_length_b       6.117467693188455
_cell_length_c       6.117467680630199
_cell_angle_alpha    60.00000264056606
_cell_angle_beta     60.00000119140982
_cell_angle_gamma    60.000001630596046

_space_group_name_H-M_alt    "P 1"
_space_group_IT_number       1

loop_
  _space_group_symop_operation_xyz
  'x, y, z'

loop_
  _atom_site_type_symbol
  _atom_site_label
  _atom_site_symmetry_multiplicity
  _atom_site_fract_x
  _atom_site_fract_y
  _atom_site_fract_z
  _atom_site_occupancy
  Hf  Hf1       1.0  0.24999991240878533  0.25000027548444986  0.25000030673011675  1.0000
  Hf  Hf2       1.0  0.7499998991765128  0.7499995591585331  0.7499996256931105  1.0000
  Re  Re1       1.0  5.752274374150505e-08  0.9999999859856855  1.2046149394758216e-07  1.0000
  S   S1        1.0  0.2681739822488088  0.2681740479596284  0.7318257337828112  1.0000
  S   S2        1.0  0.7318260191541878  0.7318260609635864  0.26817415457773863  1.0000
  S   S3        1.0  0.7318260433944737  0.26817404897012953  0.268174013984061  1.0000
  S   S4        1.0  0.26817417988533176  0.7318258076953623  0.7318260268786616  1.0000
  S   S5        1.0  0.26817400899678084  0.731825938093059  0.2681740724711061  1.0000
  S   S6        1.0  0.7318258981989508  0.2681742609222046  0.7318259683360782  1.0000
