data_image0
_chemical_formula_structural       Hf2RhS6
_chemical_formula_sum              "Hf2 Rh1 S6"
_cell_length_a       6.2093347080858505
_cell_length_b       6.209334732297221
_cell_length_c       6.209334520900776
_cell_angle_alpha    60.00000302808349
_cell_angle_beta     60.000003603982826
_cell_angle_gamma    60.000004677144595

_space_group_name_H-M_alt    "P 1"
_space_group_IT_number       1

loop_
  _space_group_symop_operation_xyz
  'x, y, z'

loop_
  _atom_site_type_symbol
  _atom_site_label
  _atom_site_symmetry_multiplicity
  _atom_site_fract_x
  _atom_site_fract_y
  _atom_site_fract_z
  _atom_site_occupancy
  Hf  Hf1       1.0  0.249999409727726  0.25000023482703565  0.2500003520479057  1.0000
  Hf  Hf2       1.0  0.7499999660043578  0.7500000575256809  0.7499993661606222  1.0000
  Rh  Rh1       1.0  0.9999999563262971  4.733820422134945e-08  7.869167617202279e-08  1.0000
  S   S1        1.0  0.26189947272265407  0.26189941865904776  0.7381005502042557  1.0000
  S   S2        1.0  0.7381008875094541  0.7381003135249511  0.26189962418722496  1.0000
  S   S3        1.0  0.7381006437911265  0.2618993445413742  0.26189950371722603  1.0000
  S   S4        1.0  0.26189965264655024  0.738100612499093  0.7381004854621328  1.0000
  S   S5        1.0  0.2618992871509331  0.7381003939008827  0.2618995340348725  1.0000
  S   S6        1.0  0.7381007268307112  0.26189958483625164  0.7381004228658313  1.0000
