data_image0
_chemical_formula_structural       Hf2ReO6
_chemical_formula_sum              "Hf2 Re1 O6"
_cell_length_a       4.970066355076004
_cell_length_b       4.970066386673861
_cell_length_c       4.970066296061964
_cell_angle_alpha    60.00000061856933
_cell_angle_beta     60.00000044369563
_cell_angle_gamma    59.99999936754033

_space_group_name_H-M_alt    "P 1"
_space_group_IT_number       1

loop_
  _space_group_symop_operation_xyz
  'x, y, z'

loop_
  _atom_site_type_symbol
  _atom_site_label
  _atom_site_symmetry_multiplicity
  _atom_site_fract_x
  _atom_site_fract_y
  _atom_site_fract_z
  _atom_site_occupancy
  Hf  Hf1       1.0  0.2499999995708658  0.25000000026931224  0.24999996840878405  1.0000
  Hf  Hf2       1.0  0.7499998311724345  0.7500002176612764  0.7499998785577181  1.0000
  Re  Re1       1.0  1.6545035649881203e-08  0.9999999852145449  0.9999999950961185  1.0000
  O   O1        1.0  0.2676234738180777  0.2676233898523993  0.7323766254286579  1.0000
  O   O2        1.0  0.7323765829951162  0.7323765471545447  0.26762350449451033  1.0000
  O   O3        1.0  0.7323766080629153  0.267623369165632  0.2676234965249453  1.0000
  O   O4        1.0  0.2676234645906517  0.7323765900194942  0.732376572135988  1.0000
  O   O5        1.0  0.26762343377213765  0.7323765284213078  0.2676234153880285  1.0000
  O   O6        1.0  0.7323766076234802  0.26762336422927185  0.7323765633380065  1.0000
