data_image0
_chemical_formula_structural       Hf2RuO6
_chemical_formula_sum              "Hf2 Ru1 O6"
_cell_length_a       4.958848382273439
_cell_length_b       4.958848448903741
_cell_length_c       4.958848362657482
_cell_angle_alpha    60.00000043214388
_cell_angle_beta     59.999999839112554
_cell_angle_gamma    60.00000021886844

_space_group_name_H-M_alt    "P 1"
_space_group_IT_number       1

loop_
  _space_group_symop_operation_xyz
  'x, y, z'

loop_
  _atom_site_type_symbol
  _atom_site_label
  _atom_site_symmetry_multiplicity
  _atom_site_fract_x
  _atom_site_fract_y
  _atom_site_fract_z
  _atom_site_occupancy
  Hf  Hf1       1.0  0.24999993608804175  0.24999984925245394  0.2500002373188672  1.0000
  Hf  Hf2       1.0  0.7500000449061095  0.7499996342009595  0.7500003144719312  1.0000
  Ru  Ru1       1.0  0.9999999924492974  2.9637805049304608e-08  5.1470963719106894e-08  1.0000
  O   O1        1.0  0.26639915683842547  0.26639917015530346  0.73360071812893  1.0000
  O   O2        1.0  0.7336008311774236  0.7336009628600045  0.26639909196763395  1.0000
  O   O3        1.0  0.7336009400143055  0.26639943599699206  0.2663988390686363  1.0000
  O   O4        1.0  0.2663990611697448  0.7336009020131343  0.7336008054816944  1.0000
  O   O5        1.0  0.26639919434286025  0.7336009467131783  0.2663990417678642  1.0000
  O   O6        1.0  0.7336008476779932  0.2663991220868852  0.7336008460313209  1.0000
