data_image0
_chemical_formula_structural       Hf2RuS6
_chemical_formula_sum              "Hf2 Ru1 S6"
_cell_length_a       6.139244592499539
_cell_length_b       6.139244383317252
_cell_length_c       6.139244400827213
_cell_angle_alpha    60.000003910213465
_cell_angle_beta     60.000000487347826
_cell_angle_gamma    60.000004730153464

_space_group_name_H-M_alt    "P 1"
_space_group_IT_number       1

loop_
  _space_group_symop_operation_xyz
  'x, y, z'

loop_
  _atom_site_type_symbol
  _atom_site_label
  _atom_site_symmetry_multiplicity
  _atom_site_fract_x
  _atom_site_fract_y
  _atom_site_fract_z
  _atom_site_occupancy
  Hf  Hf1       1.0  0.2500007178037866  0.2499994949276734  0.24999972092733194  1.0000
  Hf  Hf2       1.0  0.7500001083255324  0.7500002922021435  0.7499999803984728  1.0000
  Ru  Ru1       1.0  0.9999999963132419  6.184326150037575e-08  0.9999999920969945  1.0000
  S   S1        1.0  0.2649354465003036  0.26493569604160583  0.7350643443039176  1.0000
  S   S2        1.0  0.7350642087256494  0.7350645060364887  0.2649355558243045  1.0000
  S   S3        1.0  0.7350642820448029  0.2649355346709188  0.26493569348764096  1.0000
  S   S4        1.0  0.26493565208513203  0.7350643103122378  0.7350644249111911  1.0000
  S   S5        1.0  0.2649355504088129  0.7350645892375227  0.26493567686877545  1.0000
  S   S6        1.0  0.7350640331753275  0.26493552306810764  0.7350645939045432  1.0000
