data_image0
_chemical_formula_structural       Hf2SiTe6
_chemical_formula_sum              "Hf2 Si1 Te6"
_cell_length_a       7.062335178352037
_cell_length_b       7.062335108961129
_cell_length_c       7.062335059690829
_cell_angle_alpha    60.00000080948558
_cell_angle_beta     60.00000007181823
_cell_angle_gamma    59.999999752467005

_space_group_name_H-M_alt    "P 1"
_space_group_IT_number       1

loop_
  _space_group_symop_operation_xyz
  'x, y, z'

loop_
  _atom_site_type_symbol
  _atom_site_label
  _atom_site_symmetry_multiplicity
  _atom_site_fract_x
  _atom_site_fract_y
  _atom_site_fract_z
  _atom_site_occupancy
  Hf  Hf1       1.0  0.24999992372538218  0.2500000364068294  0.25000001163896796  1.0000
  Hf  Hf2       1.0  0.7500000352746464  0.7499999496747766  0.750000081757867  1.0000
  Si  Si1       1.0  0.9999999971266956  0.9999999791896903  5.2904712892521764e-08  1.0000
  Te  Te1       1.0  0.25335454537013985  0.2533545307728288  0.7466454833930865  1.0000
  Te  Te2       1.0  0.7466454937454955  0.7466454553087761  0.25335449773186924  1.0000
  Te  Te3       1.0  0.7466454597667082  0.253354555379215  0.2533544868781968  1.0000
  Te  Te4       1.0  0.25335451835756906  0.7466454567152775  0.7466454650092396  1.0000
  Te  Te5       1.0  0.25335452615519044  0.7466454994001542  0.2533545082906457  1.0000
  Te  Te6       1.0  0.7466454977324162  0.2533545421756109  0.746645417302188  1.0000
