data_image0
_chemical_formula_structural       Hf2SnS6
_chemical_formula_sum              "Hf2 Sn1 S6"
_cell_length_a       6.4085256076859745
_cell_length_b       6.408525595122434
_cell_length_c       6.408525677309702
_cell_angle_alpha    60.000000382681336
_cell_angle_beta     59.99999946627214
_cell_angle_gamma    60.000001531966625

_space_group_name_H-M_alt    "P 1"
_space_group_IT_number       1

loop_
  _space_group_symop_operation_xyz
  'x, y, z'

loop_
  _atom_site_type_symbol
  _atom_site_label
  _atom_site_symmetry_multiplicity
  _atom_site_fract_x
  _atom_site_fract_y
  _atom_site_fract_z
  _atom_site_occupancy
  Hf  Hf1       1.0  0.2500001358707525  0.24999994545179235  0.25000014331309267  1.0000
  Hf  Hf2       1.0  0.7499998659890098  0.7500000504005803  0.7500002566773003  1.0000
  Sn  Sn1       1.0  0.9999999933392154  0.9999999713332299  1.76637771338912e-08  1.0000
  S   S1        1.0  0.2652273459187863  0.26522730114744064  0.7347726547483368  1.0000
  S   S2        1.0  0.7347726547761986  0.7347726927938089  0.2652272240388693  1.0000
  S   S3        1.0  0.7347726181454127  0.2652274155610168  0.2652272087353958  1.0000
  S   S4        1.0  0.2652273351713147  0.7347727637586771  0.7347725667224493  1.0000
  S   S5        1.0  0.26522737398906804  0.7347725795091217  0.2652272850904491  1.0000
  S   S6        1.0  0.7347726994907381  0.2652272825649872  0.7347726232379157  1.0000
