data_image0
_chemical_formula_structural       Hf2SiO6
_chemical_formula_sum              "Hf2 Si1 O6"
_cell_length_a       4.8291081360227714
_cell_length_b       4.82910830373819
_cell_length_c       4.829108211712268
_cell_angle_alpha    59.99999866162925
_cell_angle_beta     59.99999806181196
_cell_angle_gamma    59.999999470091076

_space_group_name_H-M_alt    "P 1"
_space_group_IT_number       1

loop_
  _space_group_symop_operation_xyz
  'x, y, z'

loop_
  _atom_site_type_symbol
  _atom_site_label
  _atom_site_symmetry_multiplicity
  _atom_site_fract_x
  _atom_site_fract_y
  _atom_site_fract_z
  _atom_site_occupancy
  Hf  Hf1       1.0  0.25000009004110696  0.24999994148495225  0.25000010086876095  1.0000
  Hf  Hf2       1.0  0.7500000492196915  0.7499999563358  0.7500001276154009  1.0000
  Si  Si1       1.0  2.801378674154542e-09  2.0289375508217777e-08  0.9999999739591926  1.0000
  O   O1        1.0  0.25039972627035556  0.25039981376861115  0.7496002314967316  1.0000
  O   O2        1.0  0.7496002010711342  0.7496002463671486  0.25039972152710227  1.0000
  O   O3        1.0  0.7496001992579338  0.2503997564975859  0.25039975521994523  1.0000
  O   O4        1.0  0.25039973849345093  0.7496003011020028  0.7496001462391854  1.0000
  O   O5        1.0  0.25039977423840465  0.7496002081183529  0.2503996942908737  1.0000
  O   O6        1.0  0.7496002518893636  0.2503997708599064  0.7496002002199542  1.0000
