data_image0
_chemical_formula_structural       Hf2SnO6
_chemical_formula_sum              "Hf2 Sn1 O6"
_cell_length_a       5.139786902356894
_cell_length_b       5.13978682624983
_cell_length_c       5.139786937276169
_cell_angle_alpha    59.999999814420164
_cell_angle_beta     59.9999995103163
_cell_angle_gamma    60.00000048464028

_space_group_name_H-M_alt    "P 1"
_space_group_IT_number       1

loop_
  _space_group_symop_operation_xyz
  'x, y, z'

loop_
  _atom_site_type_symbol
  _atom_site_label
  _atom_site_symmetry_multiplicity
  _atom_site_fract_x
  _atom_site_fract_y
  _atom_site_fract_z
  _atom_site_occupancy
  Hf  Hf1       1.0  0.2499999237433868  0.2500000101916757  0.2500001310766195  1.0000
  Hf  Hf2       1.0  0.749999885378159  0.7499998566254474  0.7500001799299056  1.0000
  Sn  Sn1       1.0  2.2465923142062237e-09  0.9999999999999999  0.9999999852574623  1.0000
  O   O1        1.0  0.26648330005887644  0.2664832400884513  0.7335167154232096  1.0000
  O   O2        1.0  0.7335167267756951  0.7335167554037041  0.2664832395023281  1.0000
  O   O3        1.0  0.7335168309437379  0.2664832980462784  0.2664831703167685  1.0000
  O   O4        1.0  0.2664832427265689  0.7335168332695217  0.7335166971702916  1.0000
  O   O5        1.0  0.26648334400642637  0.7335166679660533  0.2664831810420404  1.0000
  O   O6        1.0  0.7335167551045517  0.2664833465890701  0.7335166834648733  1.0000
