data_image0
_chemical_formula_structural       Hf2SO6
_chemical_formula_sum              "Hf2 S1 O6"
_cell_length_a       4.900600700861098
_cell_length_b       4.900600769668302
_cell_length_c       4.900600744226039
_cell_angle_alpha    59.99999912694387
_cell_angle_beta     59.99999885473314
_cell_angle_gamma    59.99999968435461

_space_group_name_H-M_alt    "P 1"
_space_group_IT_number       1

loop_
  _space_group_symop_operation_xyz
  'x, y, z'

loop_
  _atom_site_type_symbol
  _atom_site_label
  _atom_site_symmetry_multiplicity
  _atom_site_fract_x
  _atom_site_fract_y
  _atom_site_fract_z
  _atom_site_occupancy
  Hf  Hf1       1.0  0.2500000186171001  0.25000000920216764  0.24999998615553243  1.0000
  Hf  Hf2       1.0  0.7500000277193155  0.7500000201089843  0.7499999762813492  1.0000
  S   S1        1.0  0.9999999416166031  5.498180474236641e-08  0.9999999670111714  1.0000
  O   O1        1.0  0.24198577703685453  0.24198582457112836  0.7580142009854823  1.0000
  O   O2        1.0  0.7580142249597366  0.758014182247467  0.24198580098928865  1.0000
  O   O3        1.0  0.7580141890509065  0.24198578727433026  0.24198583489918538  1.0000
  O   O4        1.0  0.24198584543493257  0.7580141220765207  0.7580142077270989  1.0000
  O   O5        1.0  0.24198579054869795  0.7580141940036387  0.24198580758966456  1.0000
  O   O6        1.0  0.7580141744381346  0.24198581781330253  0.7580142063096807  1.0000
