data_image0
_chemical_formula_structural       Hf2SnTe6
_chemical_formula_sum              "Hf2 Sn1 Te6"
_cell_length_a       7.289237761612393
_cell_length_b       7.289237869358915
_cell_length_c       7.2892378295062406
_cell_angle_alpha    59.99999975613902
_cell_angle_beta     60.00000078925865
_cell_angle_gamma    60.0000001482871

_space_group_name_H-M_alt    "P 1"
_space_group_IT_number       1

loop_
  _space_group_symop_operation_xyz
  'x, y, z'

loop_
  _atom_site_type_symbol
  _atom_site_label
  _atom_site_symmetry_multiplicity
  _atom_site_fract_x
  _atom_site_fract_y
  _atom_site_fract_z
  _atom_site_occupancy
  Hf  Hf1       1.0  0.25000002475162253  0.24999997068215027  0.25000002073644517  1.0000
  Hf  Hf2       1.0  0.7499999581475213  0.7500000750268  0.7499999619472423  1.0000
  Sn  Sn1       1.0  0.999999964957241  1.0081258623935923e-08  2.2083948667143198e-08  1.0000
  Te  Te1       1.0  0.2672291408791094  0.2672291077580979  0.7327708784794988  1.0000
  Te  Te2       1.0  0.7327708912567278  0.7327708757830905  0.267229136735549  1.0000
  Te  Te3       1.0  0.7327708681437786  0.2672291160064751  0.2672291255436403  1.0000
  Te  Te4       1.0  0.2672291537351006  0.732770879296182  0.7327708354156158  1.0000
  Te  Te5       1.0  0.2672291243792606  0.7327708616253651  0.26722912063312215  1.0000
  Te  Te6       1.0  0.7327708743144209  0.26722910343351586  0.7327708944783315  1.0000
