data_image0
_chemical_formula_structural       Hf2TiS6
_chemical_formula_sum              "Hf2 Ti1 S6"
_cell_length_a       6.157739089192105
_cell_length_b       6.157739036279084
_cell_length_c       6.1577388759658325
_cell_angle_alpha    59.99999808349951
_cell_angle_beta     60.0000003487546
_cell_angle_gamma    59.99999800959302

_space_group_name_H-M_alt    "P 1"
_space_group_IT_number       1

loop_
  _space_group_symop_operation_xyz
  'x, y, z'

loop_
  _atom_site_type_symbol
  _atom_site_label
  _atom_site_symmetry_multiplicity
  _atom_site_fract_x
  _atom_site_fract_y
  _atom_site_fract_z
  _atom_site_occupancy
  Hf  Hf1       1.0  0.2499997282614668  0.25000027472815206  0.25000011550126294  1.0000
  Hf  Hf2       1.0  0.7500000822072095  0.7499999152332867  0.7499993616446188  1.0000
  Ti  Ti1       1.0  7.370163336263995e-08  0.9999999701657217  0.9999997458382225  1.0000
  S   S1        1.0  0.2640602026306732  0.2640602534467142  0.735939859673624  1.0000
  S   S2        1.0  0.7359398189072635  0.7359396520945262  0.26406040279915893  1.0000
  S   S3        1.0  0.7359397143216674  0.2640601596241483  0.26406045326924477  1.0000
  S   S4        1.0  0.26406029613400567  0.7359398354199417  0.7359398658076342  1.0000
  S   S5        1.0  0.26406017766928236  0.735939600239231  0.26406037404921  1.0000
  S   S6        1.0  0.735939890066206  0.26406034110315  0.7359398360564166  1.0000
