data_image0
_chemical_formula_structural       Hf2TaTe6
_chemical_formula_sum              "Hf2 Ta1 Te6"
_cell_length_a       7.181193226547605
_cell_length_b       7.181193249989087
_cell_length_c       7.181193279054325
_cell_angle_alpha    59.999999391394944
_cell_angle_beta     59.99999927556615
_cell_angle_gamma    59.99999975166885

_space_group_name_H-M_alt    "P 1"
_space_group_IT_number       1

loop_
  _space_group_symop_operation_xyz
  'x, y, z'

loop_
  _atom_site_type_symbol
  _atom_site_label
  _atom_site_symmetry_multiplicity
  _atom_site_fract_x
  _atom_site_fract_y
  _atom_site_fract_z
  _atom_site_occupancy
  Hf  Hf1       1.0  0.2500000179292301  0.24999992243549263  0.2500000030093462  1.0000
  Hf  Hf2       1.0  0.7499999994377063  0.7500000316573304  0.7499999889717038  1.0000
  Ta  Ta1       1.0  1.1433997860188465e-08  1.8760383089197106e-08  0.999999994650493  1.0000
  Te  Te1       1.0  0.2618789392641542  0.2618789321538644  0.7381211056963872  1.0000
  Te  Te2       1.0  0.7381210406962895  0.7381211003914696  0.26187891589259776  1.0000
  Te  Te3       1.0  0.7381210775316462  0.261878914903262  0.2618789382877512  1.0000
  Te  Te4       1.0  0.26187894728981287  0.7381210698883699  0.7381210346166328  1.0000
  Te  Te5       1.0  0.2618789219814976  0.7381210852267687  0.2618789406769998  1.0000
  Te  Te6       1.0  0.7381210433290466  0.2618789285581822  0.7381210781217593  1.0000
