data_image0
_chemical_formula_structural       Hf2TaSe6
_chemical_formula_sum              "Hf2 Ta1 Se6"
_cell_length_a       6.614724041203229
_cell_length_b       6.614724090563499
_cell_length_c       6.614724109833731
_cell_angle_alpha    59.999999964278565
_cell_angle_beta     60.00000121497602
_cell_angle_gamma    59.99999873292462

_space_group_name_H-M_alt    "P 1"
_space_group_IT_number       1

loop_
  _space_group_symop_operation_xyz
  'x, y, z'

loop_
  _atom_site_type_symbol
  _atom_site_label
  _atom_site_symmetry_multiplicity
  _atom_site_fract_x
  _atom_site_fract_y
  _atom_site_fract_z
  _atom_site_occupancy
  Hf  Hf1       1.0  0.25000009403771684  0.24999985193307997  0.25000000362963504  1.0000
  Hf  Hf2       1.0  0.7499999919746941  0.7500000020212053  0.7500002805562827  1.0000
  Ta  Ta1       1.0  3.546066143676001e-08  0.999999940750611  0.9999998561811427  1.0000
  Se  Se1       1.0  0.26153463655810416  0.26153461648123255  0.7384653918229698  1.0000
  Se  Se2       1.0  0.7384653706487252  0.7384654948375899  0.26153443420943034  1.0000
  Se  Se3       1.0  0.7384653620585161  0.2615346240175932  0.26153458114427763  1.0000
  Se  Se4       1.0  0.26153451649953574  0.7384654595280801  0.7384654138058151  1.0000
  Se  Se5       1.0  0.2615345650495768  0.73846550089077  0.26153458570310684  1.0000
  Se  Se6       1.0  0.7384654196241788  0.26153451044470793  0.7384654557889444  1.0000
