data_image0
_chemical_formula_structural       Hf2TiO6
_chemical_formula_sum              "Hf2 Ti1 O6"
_cell_length_a       4.954479792623979
_cell_length_b       4.954479791357093
_cell_length_c       4.954479816169692
_cell_angle_alpha    59.999999340008664
_cell_angle_beta     59.99999849718885
_cell_angle_gamma    59.999999178832226

_space_group_name_H-M_alt    "P 1"
_space_group_IT_number       1

loop_
  _space_group_symop_operation_xyz
  'x, y, z'

loop_
  _atom_site_type_symbol
  _atom_site_label
  _atom_site_symmetry_multiplicity
  _atom_site_fract_x
  _atom_site_fract_y
  _atom_site_fract_z
  _atom_site_occupancy
  Hf  Hf1       1.0  0.24999998213436875  0.250000108853695  0.25000004022472255  1.0000
  Hf  Hf2       1.0  0.7500001731156016  0.7499999260979101  0.749999993601718  1.0000
  Ti  Ti1       1.0  3.1404798428080324e-08  0.9999999826960355  3.5335465380423584e-08  1.0000
  O   O1        1.0  0.26342444500475537  0.2634244870011582  0.7365754907396542  1.0000
  O   O2        1.0  0.7365755443956423  0.736575486150575  0.263424432871845  1.0000
  O   O3        1.0  0.7365754776408047  0.263424480911581  0.26342449884323205  1.0000
  O   O4        1.0  0.2634244564830985  0.7365755392080555  0.7365754914921996  1.0000
  O   O5        1.0  0.26342442046575487  0.7365755196777027  0.2634245373306098  1.0000
  O   O6        1.0  0.7365754772164959  0.2634244559460257  0.736575517694107  1.0000
