data_image0
_chemical_formula_structural       Hf2TaO6
_chemical_formula_sum              "Hf2 Ta1 O6"
_cell_length_a       5.045094990534349
_cell_length_b       5.045095074075041
_cell_length_c       5.045095088226545
_cell_angle_alpha    59.999999479211176
_cell_angle_beta     59.999999402750426
_cell_angle_gamma    59.99999933079929

_space_group_name_H-M_alt    "P 1"
_space_group_IT_number       1

loop_
  _space_group_symop_operation_xyz
  'x, y, z'

loop_
  _atom_site_type_symbol
  _atom_site_label
  _atom_site_symmetry_multiplicity
  _atom_site_fract_x
  _atom_site_fract_y
  _atom_site_fract_z
  _atom_site_occupancy
  Hf  Hf1       1.0  0.24999998285345273  0.2500001186354534  0.24999989617819912  1.0000
  Hf  Hf2       1.0  0.7500000881351774  0.7499999577807392  0.7500000140401959  1.0000
  Ta  Ta1       1.0  0.999999995283646  7.282785646694508e-09  1.853801612539481e-08  1.0000
  O   O1        1.0  0.26646485964714034  0.26646490930060923  0.7335351230314259  1.0000
  O   O2        1.0  0.7335350934605458  0.7335350675841794  0.2664649077858826  1.0000
  O   O3        1.0  0.7335351252780054  0.26646489524628686  0.2664648787518484  1.0000
  O   O4        1.0  0.26646489163725384  0.7335350962040728  0.7335350791827939  1.0000
  O   O5        1.0  0.2664649072292522  0.7335350694155359  0.26646491092070734  1.0000
  O   O6        1.0  0.7335350392898305  0.26646489290368097  0.7335351859731385  1.0000
