data_image0
_chemical_formula_structural       Hf2TiTe6
_chemical_formula_sum              "Hf2 Ti1 Te6"
_cell_length_a       7.104157637861444
_cell_length_b       7.104157647079544
_cell_length_c       7.104157691810005
_cell_angle_alpha    59.99999999550314
_cell_angle_beta     59.999999771354794
_cell_angle_gamma    60.00000096084398

_space_group_name_H-M_alt    "P 1"
_space_group_IT_number       1

loop_
  _space_group_symop_operation_xyz
  'x, y, z'

loop_
  _atom_site_type_symbol
  _atom_site_label
  _atom_site_symmetry_multiplicity
  _atom_site_fract_x
  _atom_site_fract_y
  _atom_site_fract_z
  _atom_site_occupancy
  Hf  Hf1       1.0  0.24999998737155396  0.2499999395413236  0.25000010089082514  1.0000
  Hf  Hf2       1.0  0.7499999390098071  0.7500000927373038  0.74999984637603  1.0000
  Ti  Ti1       1.0  0.9999999722867411  0.9999999758642345  7.096855730757268e-08  1.0000
  Te  Te1       1.0  0.26012731611270173  0.2601272561470022  0.7398727365823663  1.0000
  Te  Te2       1.0  0.7398727221414885  0.7398727623397608  0.2601272939608893  1.0000
  Te  Te3       1.0  0.7398726952356917  0.26012724025382566  0.2601273433322071  1.0000
  Te  Te4       1.0  0.26012733875083105  0.7398727178935238  0.7398726463180152  1.0000
  Te  Te5       1.0  0.26012729512903443  0.7398726875184166  0.26012731337217204  1.0000
  Te  Te6       1.0  0.7398727328967691  0.26012732752037965  0.7398726536279395  1.0000
