data_image0
_chemical_formula_structural       Hf2TaS6
_chemical_formula_sum              "Hf2 Ta1 S6"
_cell_length_a       6.301004086599044
_cell_length_b       6.301004147974221
_cell_length_c       6.301003947769525
_cell_angle_alpha    59.99999998060556
_cell_angle_beta     59.99999939460925
_cell_angle_gamma    59.99999947950003

_space_group_name_H-M_alt    "P 1"
_space_group_IT_number       1

loop_
  _space_group_symop_operation_xyz
  'x, y, z'

loop_
  _atom_site_type_symbol
  _atom_site_label
  _atom_site_symmetry_multiplicity
  _atom_site_fract_x
  _atom_site_fract_y
  _atom_site_fract_z
  _atom_site_occupancy
  Hf  Hf1       1.0  0.249999912984628  0.24999976833292542  0.2500000589584203  1.0000
  Hf  Hf2       1.0  0.7500001797886874  0.7500003410066833  0.7500000812086084  1.0000
  Ta  Ta1       1.0  6.774444744206371e-09  2.915594490684368e-08  0.9999999979052917  1.0000
  S   S1        1.0  0.26458247316157524  0.2645825751667318  0.7354175586691429  1.0000
  S   S2        1.0  0.7354175305211414  0.7354174330989377  0.2645822560122561  1.0000
  S   S3        1.0  0.7354173940936647  0.26458239690941365  0.2645826566952225  1.0000
  S   S4        1.0  0.26458246988845646  0.7354176016376074  0.7354173850524733  1.0000
  S   S5        1.0  0.26458252282842204  0.7354174728036988  0.2645825188172022  1.0000
  S   S6        1.0  0.7354175159907371  0.26458235858256957  0.7354174952866201  1.0000
