data_image0
_chemical_formula_structural       Hf2TeO6
_chemical_formula_sum              "Hf2 Te1 O6"
_cell_length_a       5.115512733650683
_cell_length_b       5.115512795223155
_cell_length_c       5.115513041828807
_cell_angle_alpha    60.00000173930598
_cell_angle_beta     59.999998497416975
_cell_angle_gamma    60.00000239185155

_space_group_name_H-M_alt    "P 1"
_space_group_IT_number       1

loop_
  _space_group_symop_operation_xyz
  'x, y, z'

loop_
  _atom_site_type_symbol
  _atom_site_label
  _atom_site_symmetry_multiplicity
  _atom_site_fract_x
  _atom_site_fract_y
  _atom_site_fract_z
  _atom_site_occupancy
  Hf  Hf1       1.0  0.249999742812748  0.24999993454217354  0.2500002700208286  1.0000
  Hf  Hf2       1.0  0.7500008772966602  0.7500002609145505  0.7499996553376972  1.0000
  Te  Te1       1.0  3.762222052481767e-08  0.999999920992128  8.715732064942407e-08  1.0000
  O   O1        1.0  0.26286461264434224  0.26286490080666286  0.7371351039014129  1.0000
  O   O2        1.0  0.7371350518725626  0.7371352563431784  0.2628648375166187  1.0000
  O   O3        1.0  0.7371348911347225  0.2628649222911522  0.2628647201472741  1.0000
  O   O4        1.0  0.2628647911703778  0.7371350122001292  0.7371352357382179  1.0000
  O   O5        1.0  0.262864525137289  0.7371353901930987  0.26286515636828567  1.0000
  O   O6        1.0  0.7371354549922783  0.26286431445710323  0.7371349434157788  1.0000
