data_image0
_chemical_formula_structural       Hf2TiSe6
_chemical_formula_sum              "Hf2 Ti1 Se6"
_cell_length_a       6.51016160816461
_cell_length_b       6.5101616976449765
_cell_length_c       6.5101618563609716
_cell_angle_alpha    59.99999783294535
_cell_angle_beta     60.00000020959077
_cell_angle_gamma    59.99999885588478

_space_group_name_H-M_alt    "P 1"
_space_group_IT_number       1

loop_
  _space_group_symop_operation_xyz
  'x, y, z'

loop_
  _atom_site_type_symbol
  _atom_site_label
  _atom_site_symmetry_multiplicity
  _atom_site_fract_x
  _atom_site_fract_y
  _atom_site_fract_z
  _atom_site_occupancy
  Hf  Hf1       1.0  0.25000031592957805  0.24999966134176418  0.25000023304461133  1.0000
  Hf  Hf2       1.0  0.7499996114805755  0.7500002313151692  0.7500003411951961  1.0000
  Ti  Ti1       1.0  0.9999999821370512  3.762563806769449e-08  0.9999999378926107  1.0000
  Se  Se1       1.0  0.25921014997272196  0.2592099288864894  0.7407898031309785  1.0000
  Se  Se2       1.0  0.7407898934065372  0.7407900521907081  0.2592098225450184  1.0000
  Se  Se3       1.0  0.7407898636929564  0.2592100789160194  0.2592099646855356  1.0000
  Se  Se4       1.0  0.2592101512518969  0.7407899981065459  0.7407899329109429  1.0000
  Se  Se5       1.0  0.259210063186987  0.7407900759369215  0.25920998208031065  1.0000
  Se  Se6       1.0  0.7407899767340332  0.2592099314782145  0.740789986985724  1.0000
