data_image0
_chemical_formula_structural       Hf2VS6
_chemical_formula_sum              "Hf2 V1 S6"
_cell_length_a       6.175187549571554
_cell_length_b       6.175187298950271
_cell_length_c       6.175187471391145
_cell_angle_alpha    60.00000025069928
_cell_angle_beta     59.9999990186665
_cell_angle_gamma    59.999999399382915

_space_group_name_H-M_alt    "P 1"
_space_group_IT_number       1

loop_
  _space_group_symop_operation_xyz
  'x, y, z'

loop_
  _atom_site_type_symbol
  _atom_site_label
  _atom_site_symmetry_multiplicity
  _atom_site_fract_x
  _atom_site_fract_y
  _atom_site_fract_z
  _atom_site_occupancy
  Hf  Hf1       1.0  0.24999992710238905  0.25000000796274585  0.24999997767901105  1.0000
  Hf  Hf2       1.0  0.7500000661969671  0.7499998255550033  0.7499998946168976  1.0000
  V   V1        1.0  0.9999999781283007  0.9999999702500145  1.1236386102467956e-08  1.0000
  S   S1        1.0  0.2607900947529242  0.2607902119642567  0.7392098297774689  1.0000
  S   S2        1.0  0.7392098325293165  0.7392098476533844  0.26079019566835526  1.0000
  S   S3        1.0  0.739209929192845  0.2607902021542851  0.26079010754095383  1.0000
  S   S4        1.0  0.26079028956750044  0.7392098693633514  0.7392098228942584  1.0000
  S   S5        1.0  0.26079012485505254  0.7392098227792534  0.2607902508101499  1.0000
  S   S6        1.0  0.7392097584180061  0.26079025667171324  0.7392099016998697  1.0000
