data_image0
_chemical_formula_structural       Hf2VO6
_chemical_formula_sum              "Hf2 V1 O6"
_cell_length_a       4.8662799210352805
_cell_length_b       4.866279995017945
_cell_length_c       4.86627999199126
_cell_angle_alpha    59.99999893323399
_cell_angle_beta     59.99999817712685
_cell_angle_gamma    59.999997466423416

_space_group_name_H-M_alt    "P 1"
_space_group_IT_number       1

loop_
  _space_group_symop_operation_xyz
  'x, y, z'

loop_
  _atom_site_type_symbol
  _atom_site_label
  _atom_site_symmetry_multiplicity
  _atom_site_fract_x
  _atom_site_fract_y
  _atom_site_fract_z
  _atom_site_occupancy
  Hf  Hf1       1.0  0.24999998681699118  0.25000003633110873  0.25000011617896745  1.0000
  Hf  Hf2       1.0  0.7500000234365641  0.7500002902028582  0.7500000743724622  1.0000
  V   V1        1.0  0.9999999436969392  9.060476762522277e-08  0.9999999355851171  1.0000
  O   O1        1.0  0.26159593224440253  0.26159593241818  0.7384040172505095  1.0000
  O   O2        1.0  0.7384041227894247  0.7384039536759546  0.26159588616066387  1.0000
  O   O3        1.0  0.7384039951235911  0.2615959362046993  0.2615959000144981  1.0000
  O   O4        1.0  0.26159582336428566  0.7384041185149766  0.7384041236651083  1.0000
  O   O5        1.0  0.26159601776447433  0.7384039105658715  0.2615959127006296  1.0000
  O   O6        1.0  0.7384041688830599  0.2615957515331442  0.738404020461588  1.0000
