data_image0
_chemical_formula_structural       Hf2VTe6
_chemical_formula_sum              "Hf2 V1 Te6"
_cell_length_a       7.009278064682625
_cell_length_b       7.009278091181429
_cell_length_c       7.009278071612582
_cell_angle_alpha    59.99999998752161
_cell_angle_beta     59.999999736231175
_cell_angle_gamma    60.00000042560584

_space_group_name_H-M_alt    "P 1"
_space_group_IT_number       1

loop_
  _space_group_symop_operation_xyz
  'x, y, z'

loop_
  _atom_site_type_symbol
  _atom_site_label
  _atom_site_symmetry_multiplicity
  _atom_site_fract_x
  _atom_site_fract_y
  _atom_site_fract_z
  _atom_site_occupancy
  Hf  Hf1       1.0  0.24999990938939767  0.2500001561338684  0.25000001428249846  1.0000
  Hf  Hf2       1.0  0.7499999947056947  0.7499998813022355  0.7499999591660721  1.0000
  V   V1        1.0  0.9999999929279362  0.9999999965053609  3.667032142549217e-08  1.0000
  Te  Te1       1.0  0.2580247672269932  0.2580247402982226  0.7419752467790057  1.0000
  Te  Te2       1.0  0.741975292239435  0.7419752412236564  0.2580247768086408  1.0000
  Te  Te3       1.0  0.7419752529709516  0.25802478283017377  0.2580247408836123  1.0000
  Te  Te4       1.0  0.2580247647111745  0.741975230143457  0.7419752222430085  1.0000
  Te  Te5       1.0  0.2580248041938604  0.7419751743818082  0.25802475283786186  1.0000
  Te  Te6       1.0  0.7419752198123185  0.2580247949088336  0.7419752560751559  1.0000
