data_image0
_chemical_formula_structural       Hf2WS6
_chemical_formula_sum              "Hf2 W1 S6"
_cell_length_a       6.31415964775384
_cell_length_b       6.314159508629687
_cell_length_c       6.314159598092527
_cell_angle_alpha    60.00000065609708
_cell_angle_beta     59.9999998774481
_cell_angle_gamma    59.999999966789076

_space_group_name_H-M_alt    "P 1"
_space_group_IT_number       1

loop_
  _space_group_symop_operation_xyz
  'x, y, z'

loop_
  _atom_site_type_symbol
  _atom_site_label
  _atom_site_symmetry_multiplicity
  _atom_site_fract_x
  _atom_site_fract_y
  _atom_site_fract_z
  _atom_site_occupancy
  Hf  Hf1       1.0  0.2500001505449004  0.2500001276375297  0.24999947761255503  1.0000
  Hf  Hf2       1.0  0.7500001136241444  0.7499996632913494  0.7500007148559958  1.0000
  W   W1        1.0  2.515874016235335e-08  2.3276159396139334e-08  0.9999999678638402  1.0000
  S   S1        1.0  0.26171528412237705  0.2617155068571366  0.7382846712135019  1.0000
  S   S2        1.0  0.7382845771642331  0.7382845051952527  0.26171525104132914  1.0000
  S   S3        1.0  0.7382845206078315  0.2617156335602312  0.26171520201925996  1.0000
  S   S4        1.0  0.2617152815280559  0.7382845394855962  0.7382847912623521  1.0000
  S   S5        1.0  0.26171554705610045  0.7382846646179156  0.2617151739446358  1.0000
  S   S6        1.0  0.7382844763425008  0.26171534937415497  0.738284764476365  1.0000
