data_image0
_chemical_formula_structural       Hf2WO6
_chemical_formula_sum              "Hf2 W1 O6"
_cell_length_a       5.082314122862228
_cell_length_b       5.08231421880279
_cell_length_c       5.082314112642851
_cell_angle_alpha    59.99999756643132
_cell_angle_beta     59.999999701611664
_cell_angle_gamma    59.99999893331577

_space_group_name_H-M_alt    "P 1"
_space_group_IT_number       1

loop_
  _space_group_symop_operation_xyz
  'x, y, z'

loop_
  _atom_site_type_symbol
  _atom_site_label
  _atom_site_symmetry_multiplicity
  _atom_site_fract_x
  _atom_site_fract_y
  _atom_site_fract_z
  _atom_site_occupancy
  Hf  Hf1       1.0  0.2499999265790273  0.2500002213552977  0.25000003822022  1.0000
  Hf  Hf2       1.0  0.750000111389963  0.7500000712508255  0.7500001626022461  1.0000
  W   W1        1.0  0.9999999850371095  0.9999999903607286  6.936170228534986e-08  1.0000
  O   O1        1.0  0.26422635006860856  0.26422654422079866  0.7357736496504477  1.0000
  O   O2        1.0  0.7357736109558033  0.7357734543876245  0.2642262191623593  1.0000
  O   O3        1.0  0.7357735008209091  0.2642263154840087  0.26422647217203227  1.0000
  O   O4        1.0  0.26422650865184355  0.7357735650433636  0.73577343342474  1.0000
  O   O5        1.0  0.2642264038071148  0.7357734485556714  0.26422648562829354  1.0000
  O   O6        1.0  0.7357736330674288  0.2642264247422476  0.7357734512020702  1.0000
