data_image0
_chemical_formula_structural       Hf2WTe6
_chemical_formula_sum              "Hf2 W1 Te6"
_cell_length_a       7.126539645812949
_cell_length_b       7.1265397532330965
_cell_length_c       7.1265396141656945
_cell_angle_alpha    59.99999950383387
_cell_angle_beta     60.000000982386126
_cell_angle_gamma    59.99999970931389

_space_group_name_H-M_alt    "P 1"
_space_group_IT_number       1

loop_
  _space_group_symop_operation_xyz
  'x, y, z'

loop_
  _atom_site_type_symbol
  _atom_site_label
  _atom_site_symmetry_multiplicity
  _atom_site_fract_x
  _atom_site_fract_y
  _atom_site_fract_z
  _atom_site_occupancy
  Hf  Hf1       1.0  0.2500000141853374  0.2500000532416201  0.24999993524681294  1.0000
  Hf  Hf2       1.0  0.7499999628702206  0.7500000050536679  0.7500000407881985  1.0000
  W   W1        1.0  3.6168468143663366e-09  8.592844628387429e-09  0.9999999503957819  1.0000
  Te  Te1       1.0  0.26081932256081325  0.26081931729072744  0.7391806816925492  1.0000
  Te  Te2       1.0  0.739180723939473  0.7391806396090016  0.2608193061082622  1.0000
  Te  Te3       1.0  0.7391806905704357  0.2608192877363061  0.26081933421734904  1.0000
  Te  Te4       1.0  0.260819299677681  0.7391807018162292  0.7391807285273936  1.0000
  Te  Te5       1.0  0.2608192607590442  0.7391807335775782  0.2608192657326967  1.0000
  Te  Te6       1.0  0.7391807166251008  0.2608192508192515  0.7391807639257179  1.0000
