data_image0
_chemical_formula_structural       Hf2WSe6
_chemical_formula_sum              "Hf2 W1 Se6"
_cell_length_a       6.630273156611464
_cell_length_b       6.630273165994345
_cell_length_c       6.630273150192946
_cell_angle_alpha    59.999999682366145
_cell_angle_beta     59.99999977352926
_cell_angle_gamma    59.99999959514332

_space_group_name_H-M_alt    "P 1"
_space_group_IT_number       1

loop_
  _space_group_symop_operation_xyz
  'x, y, z'

loop_
  _atom_site_type_symbol
  _atom_site_label
  _atom_site_symmetry_multiplicity
  _atom_site_fract_x
  _atom_site_fract_y
  _atom_site_fract_z
  _atom_site_occupancy
  Hf  Hf1       1.0  0.2500000180458763  0.25000000733216765  0.2500000064201072  1.0000
  Hf  Hf2       1.0  0.7500000273291327  0.7499999665804661  0.7500000588643548  1.0000
  W   W1        1.0  0.9999999920135869  0.9999999926111952  0.9999999820476397  1.0000
  Se  Se1       1.0  0.2587822373509118  0.2587822670485141  0.7412177555396436  1.0000
  Se  Se2       1.0  0.7412177467345112  0.7412177548913521  0.2587822273902194  1.0000
  Se  Se3       1.0  0.7412177452136145  0.25878227032427276  0.25878223713928517  1.0000
  Se  Se4       1.0  0.258782235898783  0.741217755309996  0.7412177484463564  1.0000
  Se  Se5       1.0  0.2587822543222325  0.7412177403822477  0.25878224403645994  1.0000
  Se  Se6       1.0  0.741217742587956  0.25878224830799634  0.741217744581131  1.0000
