data_image0
_chemical_formula_structural       Hf2ZrSe6
_chemical_formula_sum              "Hf2 Zr1 Se6"
_cell_length_a       6.6527686481083945
_cell_length_b       6.6527686234968835
_cell_length_c       6.652768660499684
_cell_angle_alpha    60.00000011792519
_cell_angle_beta     59.999998710023526
_cell_angle_gamma    60.00000161577435

_space_group_name_H-M_alt    "P 1"
_space_group_IT_number       1

loop_
  _space_group_symop_operation_xyz
  'x, y, z'

loop_
  _atom_site_type_symbol
  _atom_site_label
  _atom_site_symmetry_multiplicity
  _atom_site_fract_x
  _atom_site_fract_y
  _atom_site_fract_z
  _atom_site_occupancy
  Hf  Hf1       1.0  0.24999986827320775  0.25000012493151824  0.2500000421942844  1.0000
  Hf  Hf2       1.0  0.7499999266254853  0.7500000342178597  0.750000042773984  1.0000
  Zr  Zr1       1.0  3.3801937704399174e-08  0.9999999871133147  0.9999999865361063  1.0000
  Se  Se1       1.0  0.26517744289041273  0.2651773371742898  0.7348226441110722  1.0000
  Se  Se2       1.0  0.7348226944826949  0.7348225808099716  0.26517740072447826  1.0000
  Se  Se3       1.0  0.7348226379587431  0.2651773376756937  0.2651773629100741  1.0000
  Se  Se4       1.0  0.26517740696663034  0.734822664992501  0.7348225219658173  1.0000
  Se  Se5       1.0  0.2651773533299576  0.7348225986126851  0.26517734711851454  1.0000
  Se  Se6       1.0  0.7348226344597453  0.2651773359401688  0.7348226454768906  1.0000
