data_image0
_chemical_formula_structural       Hf2ZrS6
_chemical_formula_sum              "Hf2 Zr1 S6"
_cell_length_a       6.3166189574893
_cell_length_b       6.316618937195308
_cell_length_c       6.316618829361582
_cell_angle_alpha    59.99999994867649
_cell_angle_beta     60.00000020015169
_cell_angle_gamma    59.99999916882615

_space_group_name_H-M_alt    "P 1"
_space_group_IT_number       1

loop_
  _space_group_symop_operation_xyz
  'x, y, z'

loop_
  _atom_site_type_symbol
  _atom_site_label
  _atom_site_symmetry_multiplicity
  _atom_site_fract_x
  _atom_site_fract_y
  _atom_site_fract_z
  _atom_site_occupancy
  Hf  Hf1       1.0  0.25000007548815384  0.24999992422776504  0.2499999577693404  1.0000
  Hf  Hf2       1.0  0.7499999805982633  0.7500000441327604  0.7500000869033258  1.0000
  Zr  Zr1       1.0  4.2155711548523853e-08  0.999999994183225  3.882304760492296e-08  1.0000
  S   S1        1.0  0.26834366747978594  0.2683436774275875  0.7316563618550542  1.0000
  S   S2        1.0  0.7316562978511512  0.7316562889940144  0.26834367533854914  1.0000
  S   S3        1.0  0.7316563409462763  0.268343697773477  0.268343630426794  1.0000
  S   S4        1.0  0.26834372595941486  0.7316563423272647  0.7316562573979695  1.0000
  S   S5        1.0  0.26834365757486817  0.7316563292271314  0.26834365271101657  1.0000
  S   S6        1.0  0.7316562072869389  0.2683436973011388  0.7316563540038036  1.0000
