data_image0
_chemical_formula_structural       Hf2ZrO6
_chemical_formula_sum              "Hf2 Zr1 O6"
_cell_length_a       5.1180401743454285
_cell_length_b       5.118040235634396
_cell_length_c       5.118040153307864
_cell_angle_alpha    59.9999967638524
_cell_angle_beta     59.99999571763177
_cell_angle_gamma    59.999996675493335

_space_group_name_H-M_alt    "P 1"
_space_group_IT_number       1

loop_
  _space_group_symop_operation_xyz
  'x, y, z'

loop_
  _atom_site_type_symbol
  _atom_site_label
  _atom_site_symmetry_multiplicity
  _atom_site_fract_x
  _atom_site_fract_y
  _atom_site_fract_z
  _atom_site_occupancy
  Hf  Hf1       1.0  0.24999983012734822  0.250000026081922  0.2499999691573259  1.0000
  Hf  Hf2       1.0  0.7499999579970253  0.7499999681679355  0.7500002777416774  1.0000
  Zr  Zr1       1.0  2.5091235426895958e-08  0.9999999856420243  2.448861365235051e-09  1.0000
  O   O1        1.0  0.26975926878328094  0.26975934341807095  0.7302407195481602  1.0000
  O   O2        1.0  0.7302407690881543  0.7302406867267288  0.26975909144889565  1.0000
  O   O3        1.0  0.7302407676414887  0.2697592139716457  0.2697593658755612  1.0000
  O   O4        1.0  0.2697593422230896  0.7302407084883334  0.7302406759394809  1.0000
  O   O5        1.0  0.26975936321928  0.730240761151933  0.26975921860396457  1.0000
  O   O6        1.0  0.7302406828555567  0.2697593120667887  0.7302407015716587  1.0000
