data_image0
_chemical_formula_structural       Hf2ZrTe6
_chemical_formula_sum              "Hf2 Zr1 Te6"
_cell_length_a       7.228376056835487
_cell_length_b       7.228376053931172
_cell_length_c       7.228376035481963
_cell_angle_alpha    60.000000204662776
_cell_angle_beta     60.00000044584253
_cell_angle_gamma    59.99999992481373

_space_group_name_H-M_alt    "P 1"
_space_group_IT_number       1

loop_
  _space_group_symop_operation_xyz
  'x, y, z'

loop_
  _atom_site_type_symbol
  _atom_site_label
  _atom_site_symmetry_multiplicity
  _atom_site_fract_x
  _atom_site_fract_y
  _atom_site_fract_z
  _atom_site_occupancy
  Hf  Hf1       1.0  0.24999996396096336  0.24999998669285994  0.2500000327876864  1.0000
  Hf  Hf2       1.0  0.7500000944993653  0.7500000854609884  0.7499999025445759  1.0000
  Zr  Zr1       1.0  0.999999984202628  1.8637925731731173e-08  0.9999999667606811  1.0000
  Te  Te1       1.0  0.26547261688602297  0.2654726419149165  0.7345273361948811  1.0000
  Te  Te2       1.0  0.7345273603311571  0.7345273624646568  0.2654726349098679  1.0000
  Te  Te3       1.0  0.734527401007096  0.2654726202677922  0.26547263889709877  1.0000
  Te  Te4       1.0  0.26547259876825774  0.7345273739456398  0.7345273868828446  1.0000
  Te  Te5       1.0  0.2654726077643168  0.7345273468136392  0.26547266728741753  1.0000
  Te  Te6       1.0  0.7345273684700716  0.26547256945937636  0.7345274355185121  1.0000
