data_image0
_chemical_formula_structural       Hg2AgF6
_chemical_formula_sum              "Hg2 Ag1 F6"
_cell_length_a       5.809231709844478
_cell_length_b       5.8092318196293045
_cell_length_c       5.809231700109414
_cell_angle_alpha    59.99999816717408
_cell_angle_beta     59.99999905298101
_cell_angle_gamma    59.999998705757974

_space_group_name_H-M_alt    "P 1"
_space_group_IT_number       1

loop_
  _space_group_symop_operation_xyz
  'x, y, z'

loop_
  _atom_site_type_symbol
  _atom_site_label
  _atom_site_symmetry_multiplicity
  _atom_site_fract_x
  _atom_site_fract_y
  _atom_site_fract_z
  _atom_site_occupancy
  Hg  Hg1       1.0  0.250000036910645  0.2499999298838314  0.25000007880647884  1.0000
  Hg  Hg2       1.0  0.7500000569813059  0.7499999330140881  0.7500001089863462  1.0000
  Ag  Ag1       1.0  4.089766493135454e-08  4.427374143067803e-08  0.9999999505287035  1.0000
  F   F1        1.0  0.2518929531212845  0.251893047949031  0.7481069617677557  1.0000
  F   F2        1.0  0.7481070012079345  0.7481069414452998  0.2518929863983101  1.0000
  F   F3        1.0  0.7481069966494919  0.2518929562103186  0.2518928856153769  1.0000
  F   F4        1.0  0.2518928623079879  0.7481071702217832  0.7481070795884278  1.0000
  F   F5        1.0  0.2518928743370392  0.7481071909136715  0.251892832360611  1.0000
  F   F6        1.0  0.7481072063816  0.25189280691375043  0.7481071120859252  1.0000
