data_image0
_chemical_formula_structural       Hg2AuI6
_chemical_formula_sum              "Hg2 Au1 I6"
_cell_length_a       7.751933011229623
_cell_length_b       7.751932949055729
_cell_length_c       7.751932853352945
_cell_angle_alpha    60.00000120745617
_cell_angle_beta     60.00000005306189
_cell_angle_gamma    59.99999938223091

_space_group_name_H-M_alt    "P 1"
_space_group_IT_number       1

loop_
  _space_group_symop_operation_xyz
  'x, y, z'

loop_
  _atom_site_type_symbol
  _atom_site_label
  _atom_site_symmetry_multiplicity
  _atom_site_fract_x
  _atom_site_fract_y
  _atom_site_fract_z
  _atom_site_occupancy
  Hg  Hg1       1.0  0.24999999912196813  0.2500000088276633  0.25000000969103253  1.0000
  Hg  Hg2       1.0  0.7499999985250466  0.7499999917247075  0.7499999994326368  1.0000
  Au  Au1       1.0  3.663762148254758e-08  0.999999979461015  2.270688293346668e-09  1.0000
  I   I1        1.0  0.26203123055358235  0.2620312428592252  0.7379687735344004  1.0000
  I   I2        1.0  0.7379687519422167  0.7379687450537711  0.26203127141457855  1.0000
  I   I3        1.0  0.7379688111149446  0.2620312057845325  0.2620312368129939  1.0000
  I   I4        1.0  0.26203124507687825  0.7379687710690092  0.7379687316676704  1.0000
  I   I5        1.0  0.26203118728532243  0.7379687925002553  0.26203125531648314  1.0000
  I   I6        1.0  0.7379687477689708  0.26203126176946034  0.7379687118048444  1.0000
