data_image0
_chemical_formula_structural       Hg2AuCl6
_chemical_formula_sum              "Hg2 Au1 Cl6"
_cell_length_a       6.892462314995957
_cell_length_b       6.892462062269886
_cell_length_c       6.892462256702689
_cell_angle_alpha    59.99999972418579
_cell_angle_beta     60.00000107062452
_cell_angle_gamma    59.99999909220456

_space_group_name_H-M_alt    "P 1"
_space_group_IT_number       1

loop_
  _space_group_symop_operation_xyz
  'x, y, z'

loop_
  _atom_site_type_symbol
  _atom_site_label
  _atom_site_symmetry_multiplicity
  _atom_site_fract_x
  _atom_site_fract_y
  _atom_site_fract_z
  _atom_site_occupancy
  Hg  Hg1       1.0  0.25000002055561715  0.24999996884410203  0.2500000300384319  1.0000
  Hg  Hg2       1.0  0.7499999821810744  0.7500000042636653  0.7500000171546506  1.0000
  Au  Au1       1.0  0.9999999902704559  0.9999999537997213  5.843297787615981e-08  1.0000
  Cl  Cl1       1.0  0.2508593129027221  0.25085928026836124  0.7491407284013514  1.0000
  Cl  Cl2       1.0  0.7491407279421447  0.7491407443704864  0.25085925511091955  1.0000
  Cl  Cl3       1.0  0.7491406713406192  0.2508593252025173  0.25085933279229916  1.0000
  Cl  Cl4       1.0  0.25085935305602963  0.7491406834439257  0.7491406190618923  1.0000
  Cl  Cl5       1.0  0.25085931127695454  0.7491407114277554  0.25085931630705016  1.0000
  Cl  Cl6       1.0  0.7491406384072812  0.2508593203188273  0.749140648295535  1.0000
