data_image0
_chemical_formula_structural       Hg2AuBr6
_chemical_formula_sum              "Hg2 Au1 Br6"
_cell_length_a       7.21688390026995
_cell_length_b       7.2168838773702335
_cell_length_c       7.2168838956314625
_cell_angle_alpha    59.99999997722456
_cell_angle_beta     60.00000010827324
_cell_angle_gamma    60.00000028351525

_space_group_name_H-M_alt    "P 1"
_space_group_IT_number       1

loop_
  _space_group_symop_operation_xyz
  'x, y, z'

loop_
  _atom_site_type_symbol
  _atom_site_label
  _atom_site_symmetry_multiplicity
  _atom_site_fract_x
  _atom_site_fract_y
  _atom_site_fract_z
  _atom_site_occupancy
  Hg  Hg1       1.0  0.24999999732131803  0.2500000005417193  0.2500000016506558  1.0000
  Hg  Hg2       1.0  0.749999997798264  0.7500000033222131  0.7499999984150056  1.0000
  Au  Au1       1.0  2.44686103207745e-08  3.394110041455896e-09  0.9999999708266044  1.0000
  Br  Br1       1.0  0.2566098301229279  0.2566098432098657  0.7433901656114683  1.0000
  Br  Br2       1.0  0.743390153893719  0.7433901555629018  0.2566098467081619  1.0000
  Br  Br3       1.0  0.7433901633976431  0.2566098330597811  0.25660984520883806  1.0000
  Br  Br4       1.0  0.2566098318189951  0.7433901657129863  0.7433901559682381  1.0000
  Br  Br5       1.0  0.25660982985091324  0.7433901655368222  0.25660984703336237  1.0000
  Br  Br6       1.0  0.7433901648970962  0.2566098298418353  0.7433901727027581  1.0000
