data_image0
_chemical_formula_structural       Hg2AgCl6
_chemical_formula_sum              "Hg2 Ag1 Cl6"
_cell_length_a       6.9086442078539765
_cell_length_b       6.908643857114226
_cell_length_c       6.908644185047181
_cell_angle_alpha    60.000000294098086
_cell_angle_beta     60.00000170313547
_cell_angle_gamma    59.99999848316395

_space_group_name_H-M_alt    "P 1"
_space_group_IT_number       1

loop_
  _space_group_symop_operation_xyz
  'x, y, z'

loop_
  _atom_site_type_symbol
  _atom_site_label
  _atom_site_symmetry_multiplicity
  _atom_site_fract_x
  _atom_site_fract_y
  _atom_site_fract_z
  _atom_site_occupancy
  Hg  Hg1       1.0  0.250000038684058  0.24999997447886346  0.2499999026071933  1.0000
  Hg  Hg2       1.0  0.7499999447250071  0.7500000262573598  0.7500000272247939  1.0000
  Ag  Ag1       1.0  0.9999999570161254  3.36826614513087e-08  0.9999998193754692  1.0000
  Cl  Cl1       1.0  0.2513769390034021  0.2513769310823662  0.7486230201352609  1.0000
  Cl  Cl2       1.0  0.7486230378041128  0.7486230944726618  0.25137689045586525  1.0000
  Cl  Cl3       1.0  0.7486230147050794  0.2513769352616701  0.251377009809995  1.0000
  Cl  Cl4       1.0  0.25137688006838677  0.7486231558859177  0.7486231073041711  1.0000
  Cl  Cl5       1.0  0.25137704162660895  0.7486229781859237  0.2513770670932198  1.0000
  Cl  Cl6       1.0  0.7486231301450378  0.2513768736374729  0.7486231686928425  1.0000
