data_image0
_chemical_formula_structural       Hg2AgBr6
_chemical_formula_sum              "Hg2 Ag1 Br6"
_cell_length_a       7.211670915326844
_cell_length_b       7.2116708326078225
_cell_length_c       7.211670912539884
_cell_angle_alpha    60.00000013384078
_cell_angle_beta     59.99999959287873
_cell_angle_gamma    60.000000221670014

_space_group_name_H-M_alt    "P 1"
_space_group_IT_number       1

loop_
  _space_group_symop_operation_xyz
  'x, y, z'

loop_
  _atom_site_type_symbol
  _atom_site_label
  _atom_site_symmetry_multiplicity
  _atom_site_fract_x
  _atom_site_fract_y
  _atom_site_fract_z
  _atom_site_occupancy
  Hg  Hg1       1.0  0.250000015921415  0.25000000011630175  0.24999998849069313  1.0000
  Hg  Hg2       1.0  0.7499999861766599  0.7499999833660876  0.7499999950507926  1.0000
  Ag  Ag1       1.0  0.9999999736378311  0.9999999830171838  1.755896656111653e-07  1.0000
  Br  Br1       1.0  0.25537833868756055  0.25537833288391487  0.7446216834305736  1.0000
  Br  Br2       1.0  0.7446216697013449  0.744621684564109  0.255378331288404  1.0000
  Br  Br3       1.0  0.7446216936447874  0.2553783147135668  0.25537828831231024  1.0000
  Br  Br4       1.0  0.2553784007875322  0.7446216127255261  0.7446216257779764  1.0000
  Br  Br5       1.0  0.25537832733046967  0.7446216855961219  0.25537828665801776  1.0000
  Br  Br6       1.0  0.7446215949345609  0.2553783980848876  0.7446216229151857  1.0000
