data_image0
_chemical_formula_structural       Hg2AgI6
_chemical_formula_sum              "Hg2 Ag1 I6"
_cell_length_a       7.749435889654331
_cell_length_b       7.749436240985958
_cell_length_c       7.749435740693697
_cell_angle_alpha    60.00000029822207
_cell_angle_beta     60.00000280035757
_cell_angle_gamma    59.99999711731314

_space_group_name_H-M_alt    "P 1"
_space_group_IT_number       1

loop_
  _space_group_symop_operation_xyz
  'x, y, z'

loop_
  _atom_site_type_symbol
  _atom_site_label
  _atom_site_symmetry_multiplicity
  _atom_site_fract_x
  _atom_site_fract_y
  _atom_site_fract_z
  _atom_site_occupancy
  Hg  Hg1       1.0  0.2500000395784794  0.250000006319571  0.24999998536680285  1.0000
  Hg  Hg2       1.0  0.7499999801767973  0.7499999920913942  0.7500000220379716  1.0000
  Ag  Ag1       1.0  0.9999999924593876  4.741295744074876e-09  0.9999999136513339  1.0000
  I   I1        1.0  0.2623775585667697  0.26237756920477634  0.7376224392542321  1.0000
  I   I2        1.0  0.7376224406894278  0.7376224102410189  0.2623775685264189  1.0000
  I   I3        1.0  0.7376224315752065  0.2623776037833447  0.2623775066930033  1.0000
  I   I4        1.0  0.26237757537135725  0.7376224151732226  0.737622518780407  1.0000
  I   I5        1.0  0.2623774938543581  0.7376224811132639  0.2623775831647429  1.0000
  I   I6        1.0  0.7376224867233351  0.2623775141368405  0.7376224686367505  1.0000
