data_image0
_chemical_formula_structural       Hg2BeBr6
_chemical_formula_sum              "Hg2 Be1 Br6"
_cell_length_a       7.097206316930063
_cell_length_b       7.097206275432829
_cell_length_c       7.097206047197703
_cell_angle_alpha    59.99999997168787
_cell_angle_beta     60.00000082784338
_cell_angle_gamma    59.999999711426156

_space_group_name_H-M_alt    "P 1"
_space_group_IT_number       1

loop_
  _space_group_symop_operation_xyz
  'x, y, z'

loop_
  _atom_site_type_symbol
  _atom_site_label
  _atom_site_symmetry_multiplicity
  _atom_site_fract_x
  _atom_site_fract_y
  _atom_site_fract_z
  _atom_site_occupancy
  Hg  Hg1       1.0  0.24999997078219596  0.2500000075757819  0.25000000884830853  1.0000
  Hg  Hg2       1.0  0.7500000453979571  0.7499999847625656  0.7499999846376516  1.0000
  Be  Be1       1.0  1.4126599405203068e-09  3.969045150913431e-08  0.9999999766304336  1.0000
  Br  Br1       1.0  0.24359042396569766  0.24359042744874213  0.7564095944307808  1.0000
  Br  Br2       1.0  0.7564095124276605  0.7564095113937793  0.2435905009216196  1.0000
  Br  Br3       1.0  0.7564095825518994  0.24359045253136866  0.24359043244886586  1.0000
  Br  Br4       1.0  0.24359050360528187  0.7564095104705583  0.7564095195817128  1.0000
  Br  Br5       1.0  0.24359044777955877  0.7564095625805578  0.24359045210494915  1.0000
  Br  Br6       1.0  0.7564095186860565  0.24359050568734927  0.7564095268644944  1.0000
