data_image0
_chemical_formula_structural       Hg2BaBr6
_chemical_formula_sum              "Hg2 Ba1 Br6"
_cell_length_a       8.125521984041647
_cell_length_b       8.125522043303418
_cell_length_c       8.125521929332722
_cell_angle_alpha    59.99999856714373
_cell_angle_beta     60.00000222497131
_cell_angle_gamma    59.99999966517514

_space_group_name_H-M_alt    "P 1"
_space_group_IT_number       1

loop_
  _space_group_symop_operation_xyz
  'x, y, z'

loop_
  _atom_site_type_symbol
  _atom_site_label
  _atom_site_symmetry_multiplicity
  _atom_site_fract_x
  _atom_site_fract_y
  _atom_site_fract_z
  _atom_site_occupancy
  Hg  Hg1       1.0  0.250000034163331  0.24999997597682402  0.25000001670721256  1.0000
  Hg  Hg2       1.0  0.7499999931087739  0.7500000002799847  0.7500000280247126  1.0000
  Ba  Ba1       1.0  2.7761529541823408e-08  0.9999999849271842  2.1961517734996293e-08  1.0000
  Br  Br1       1.0  0.2770958159872676  0.2770958828766722  0.7229040881056868  1.0000
  Br  Br2       1.0  0.7229041767035594  0.7229041928607209  0.27709570634442215  1.0000
  Br  Br3       1.0  0.7229040080113042  0.27709596868701813  0.27709578734663254  1.0000
  Br  Br4       1.0  0.27709566787492373  0.7229043753464733  0.7229042590354003  1.0000
  Br  Br5       1.0  0.2770959420989035  0.7229039903833873  0.277095889850323  1.0000
  Br  Br6       1.0  0.7229043324755314  0.27709563618411637  0.7229042060750983  1.0000
