data_image0
_chemical_formula_structural       Hg2BaI6
_chemical_formula_sum              "Hg2 Ba1 I6"
_cell_length_a       9.76738127063135
_cell_length_b       9.767382170013208
_cell_length_c       9.767381559922752
_cell_angle_alpha    59.99999469419688
_cell_angle_beta     60.00000544459277
_cell_angle_gamma    59.99999643774277

_space_group_name_H-M_alt    "P 1"
_space_group_IT_number       1

loop_
  _space_group_symop_operation_xyz
  'x, y, z'

loop_
  _atom_site_type_symbol
  _atom_site_label
  _atom_site_symmetry_multiplicity
  _atom_site_fract_x
  _atom_site_fract_y
  _atom_site_fract_z
  _atom_site_occupancy
  Hg  Hg1       1.0  0.2499998117848909  0.25000009826567304  0.250000060593009  1.0000
  Hg  Hg2       1.0  0.7500002556894811  0.7499998872752001  0.7499999211103552  1.0000
  Ba  Ba1       1.0  0.9999998503400271  0.9999998921634484  3.2327327139821636e-07  1.0000
  I   I1        1.0  0.24598261414582695  0.24598328398959732  0.7540171771553973  1.0000
  I   I2        1.0  0.7540175133093363  0.7540167592312639  0.24598290748048007  1.0000
  I   I3        1.0  0.75401683668725  0.24598306644579176  0.24598285447150273  1.0000
  I   I4        1.0  0.24598343927874525  0.7540165454289569  0.7540170193893958  1.0000
  I   I5        1.0  0.2459825797680994  0.7540171030382153  0.2459831604513652  1.0000
  I   I6        1.0  0.7540170888187738  0.24598336275145535  0.7540165737605026  1.0000
