data_image0
_chemical_formula_structural       Hg2BaF6
_chemical_formula_sum              "Hg2 Ba1 F6"
_cell_length_a       6.606960556517832
_cell_length_b       6.606961289372762
_cell_length_c       6.606961766759063
_cell_angle_alpha    60.00000267926711
_cell_angle_beta     60.00000025836223
_cell_angle_gamma    59.9999987926606

_space_group_name_H-M_alt    "P 1"
_space_group_IT_number       1

loop_
  _space_group_symop_operation_xyz
  'x, y, z'

loop_
  _atom_site_type_symbol
  _atom_site_label
  _atom_site_symmetry_multiplicity
  _atom_site_fract_x
  _atom_site_fract_y
  _atom_site_fract_z
  _atom_site_occupancy
  Hg  Hg1       1.0  0.2499996507142775  0.2499999129719498  0.25000028456677126  1.0000
  Hg  Hg2       1.0  0.7500003821121408  0.7500000262421762  0.7499995182827511  1.0000
  Ba  Ba1       1.0  4.325344050939192e-09  0.9999999870239679  0.9999999952440137  1.0000
  F   F1        1.0  0.26676772137389543  0.266767545877815  0.7332323595513527  1.0000
  F   F2        1.0  0.7332323402275341  0.7332324118735055  0.26676765272953873  1.0000
  F   F3        1.0  0.733232666775239  0.26676732927302554  0.266767573466988  1.0000
  F   F4        1.0  0.26676732754715915  0.7332327044807722  0.73323251618415  1.0000
  F   F5        1.0  0.266767307333385  0.7332324348503618  0.2667677126475101  1.0000
  F   F6        1.0  0.7332325675969302  0.26676765822244236  0.7332323707148426  1.0000
