data_image0
_chemical_formula_structural       Hg2BeCl6
_chemical_formula_sum              "Hg2 Be1 Cl6"
_cell_length_a       6.550011894765957
_cell_length_b       6.550011488089713
_cell_length_c       6.550010864422468
_cell_angle_alpha    60.00000797641344
_cell_angle_beta     60.000010695597595
_cell_angle_gamma    60.00000756777368

_space_group_name_H-M_alt    "P 1"
_space_group_IT_number       1

loop_
  _space_group_symop_operation_xyz
  'x, y, z'

loop_
  _atom_site_type_symbol
  _atom_site_label
  _atom_site_symmetry_multiplicity
  _atom_site_fract_x
  _atom_site_fract_y
  _atom_site_fract_z
  _atom_site_occupancy
  Hg  Hg1       1.0  0.25000011710238296  0.25000006555277443  0.2499998423346992  1.0000
  Hg  Hg2       1.0  0.7499999648047041  0.7500002190963485  0.7499998540742195  1.0000
  Be  Be1       1.0  6.73811828345533e-08  4.1136393092593355e-08  0.999999869405465  1.0000
  Cl  Cl1       1.0  0.24498615096976317  0.2449860103731101  0.7550138919568298  1.0000
  Cl  Cl2       1.0  0.7550137807062259  0.7550138629120777  0.24498622418065139  1.0000
  Cl  Cl3       1.0  0.7550142058483391  0.24498578430962367  0.24498616979907561  1.0000
  Cl  Cl4       1.0  0.24498620521696735  0.7550137561447611  0.7550139310743272  1.0000
  Cl  Cl5       1.0  0.24498568305541893  0.7550142436781352  0.24498606001565398  1.0000
  Cl  Cl6       1.0  0.7550138782987227  0.2449860054440931  0.7550141281732656  1.0000
