data_image0
_chemical_formula_structural       Hg2BaCl6
_chemical_formula_sum              "Hg2 Ba1 Cl6"
_cell_length_a       7.805746066467116
_cell_length_b       7.80574536678285
_cell_length_c       7.805745875454792
_cell_angle_alpha    59.99999984210624
_cell_angle_beta     60.00000334051468
_cell_angle_gamma    59.99999787142632

_space_group_name_H-M_alt    "P 1"
_space_group_IT_number       1

loop_
  _space_group_symop_operation_xyz
  'x, y, z'

loop_
  _atom_site_type_symbol
  _atom_site_label
  _atom_site_symmetry_multiplicity
  _atom_site_fract_x
  _atom_site_fract_y
  _atom_site_fract_z
  _atom_site_occupancy
  Hg  Hg1       1.0  0.25000000736420436  0.24999997562926415  0.2500000685953505  1.0000
  Hg  Hg2       1.0  0.750000004115401  0.7500000163225025  0.7499999702045252  1.0000
  Ba  Ba1       1.0  0.999999965676205  6.746829248899506e-08  3.925472487457455e-09  1.0000
  Cl  Cl1       1.0  0.27359263484680263  0.27359270836517185  0.7264072858150267  1.0000
  Cl  Cl2       1.0  0.7264072590070363  0.7264072459298734  0.27359268714204427  1.0000
  Cl  Cl3       1.0  0.7264074336004837  0.27359263530409483  0.2735925506832217  1.0000
  Cl  Cl4       1.0  0.27359263155163377  0.7264073864592393  0.7264072580518055  1.0000
  Cl  Cl5       1.0  0.2735926473949043  0.7264073664136429  0.2735926878627752  1.0000
  Cl  Cl6       1.0  0.7264074096890586  0.2735926129858848  0.7264074868628407  1.0000
