data_image0
_chemical_formula_structural       Hg2BeI6
_chemical_formula_sum              "Hg2 Be1 I6"
_cell_length_a       7.75199991274934
_cell_length_b       7.752000326124322
_cell_length_c       7.752000045421647
_cell_angle_alpha    59.99999790057678
_cell_angle_beta     60.00000128520062
_cell_angle_gamma    59.999999174792755

_space_group_name_H-M_alt    "P 1"
_space_group_IT_number       1

loop_
  _space_group_symop_operation_xyz
  'x, y, z'

loop_
  _atom_site_type_symbol
  _atom_site_label
  _atom_site_symmetry_multiplicity
  _atom_site_fract_x
  _atom_site_fract_y
  _atom_site_fract_z
  _atom_site_occupancy
  Hg  Hg1       1.0  0.24999996207761496  0.24999999342896245  0.25000003722502073  1.0000
  Hg  Hg2       1.0  0.7500000191488743  0.74999998818643  0.7499999754778046  1.0000
  Be  Be1       1.0  4.5646811087334173e-08  1.5799081789179332e-07  0.9999999652606452  1.0000
  I   I1        1.0  0.236725559149793  0.23672559994473402  0.7632744623161906  1.0000
  I   I2        1.0  0.7632743872310198  0.7632743342734102  0.2367256405277054  1.0000
  I   I3        1.0  0.7632744913748736  0.23672546423244195  0.23672556574570852  1.0000
  I   I4        1.0  0.23672568077246722  0.7632743736113057  0.763274324053315  1.0000
  I   I5        1.0  0.2367255592228818  0.7632744317344998  0.23672556499208924  1.0000
  I   I6        1.0  0.7632743061928372  0.23672566047446844  0.7632744567692773  1.0000
