data_image0
_chemical_formula_structural       Hg2CrF6
_chemical_formula_sum              "Hg2 Cr1 F6"
_cell_length_a       5.729907282827164
_cell_length_b       5.729907320858019
_cell_length_c       5.729906938842099
_cell_angle_alpha    59.99999860112706
_cell_angle_beta     60.000002215649246
_cell_angle_gamma    59.999998899824746

_space_group_name_H-M_alt    "P 1"
_space_group_IT_number       1

loop_
  _space_group_symop_operation_xyz
  'x, y, z'

loop_
  _atom_site_type_symbol
  _atom_site_label
  _atom_site_symmetry_multiplicity
  _atom_site_fract_x
  _atom_site_fract_y
  _atom_site_fract_z
  _atom_site_occupancy
  Hg  Hg1       1.0  0.24999973107099957  0.24999995539675168  0.2500002604408049  1.0000
  Hg  Hg2       1.0  0.7500001968292845  0.7500000051251704  0.7499999482624558  1.0000
  Cr  Cr1       1.0  3.879545445496816e-08  1.4962223946161224e-07  0.9999993228846489  1.0000
  F   F1        1.0  0.2382125718125535  0.23821276491014887  0.7617872001090596  1.0000
  F   F2        1.0  0.7617869028071723  0.7617871528625892  0.23821287265868335  1.0000
  F   F3        1.0  0.7617870615091686  0.23821303993199108  0.23821272403242835  1.0000
  F   F4        1.0  0.2382126250432655  0.7617875297661081  0.7617870267556919  1.0000
  F   F5        1.0  0.23821267792367884  0.7617873977164863  0.23821295038681303  1.0000
  F   F6        1.0  0.7617881625732045  0.23821204981494676  0.7617876990124665  1.0000
