data_image0
_chemical_formula_structural       Hg2CuBr6
_chemical_formula_sum              "Hg2 Cu1 Br6"
_cell_length_a       7.13486948577444
_cell_length_b       7.134869621906183
_cell_length_c       7.134869688740488
_cell_angle_alpha    59.99999884709091
_cell_angle_beta     59.99999918858996
_cell_angle_gamma    60.00000132028016

_space_group_name_H-M_alt    "P 1"
_space_group_IT_number       1

loop_
  _space_group_symop_operation_xyz
  'x, y, z'

loop_
  _atom_site_type_symbol
  _atom_site_label
  _atom_site_symmetry_multiplicity
  _atom_site_fract_x
  _atom_site_fract_y
  _atom_site_fract_z
  _atom_site_occupancy
  Hg  Hg1       1.0  0.2499999862862137  0.24999999670208334  0.2500000023406908  1.0000
  Hg  Hg2       1.0  0.7500000150114522  0.7500000158546865  0.7499999955043618  1.0000
  Cu  Cu1       1.0  0.9999999822621899  5.3213433109185436e-08  3.2856975376294606e-09  1.0000
  Br  Br1       1.0  0.24574139891428357  0.24574141491055146  0.7542585821281621  1.0000
  Br  Br2       1.0  0.7542586296183494  0.7542585839137201  0.24574138373744497  1.0000
  Br  Br3       1.0  0.7542585980397792  0.24574139646133375  0.24574142007302532  1.0000
  Br  Br4       1.0  0.24574136842182515  0.754258604079499  0.7542585843792192  1.0000
  Br  Br5       1.0  0.24574139293066927  0.7542585576915458  0.24574145929796418  1.0000
  Br  Br6       1.0  0.7542586145965723  0.24574138276960425  0.7542585826926494  1.0000
