data_image0
_chemical_formula_structural       Hg2CaCl6
_chemical_formula_sum              "Hg2 Ca1 Cl6"
_cell_length_a       7.24166730571452
_cell_length_b       7.241667372696638
_cell_length_c       7.241667454809997
_cell_angle_alpha    60.000001914315774
_cell_angle_beta     59.999996580060966
_cell_angle_gamma    60.00000148502665

_space_group_name_H-M_alt    "P 1"
_space_group_IT_number       1

loop_
  _space_group_symop_operation_xyz
  'x, y, z'

loop_
  _atom_site_type_symbol
  _atom_site_label
  _atom_site_symmetry_multiplicity
  _atom_site_fract_x
  _atom_site_fract_y
  _atom_site_fract_z
  _atom_site_occupancy
  Hg  Hg1       1.0  0.24999991724141002  0.24999997382290193  0.24999997250402714  1.0000
  Hg  Hg2       1.0  0.7499999752310315  0.7499999349986923  0.7500000199372723  1.0000
  Ca  Ca1       1.0  3.029593402537728e-08  4.635727343667671e-15  1.0360920929238392e-07  1.0000
  Cl  Cl1       1.0  0.258994873480802  0.25899480476476483  0.7410050309097762  1.0000
  Cl  Cl2       1.0  0.741005057500584  0.7410051750892032  0.2589948694766338  1.0000
  Cl  Cl3       1.0  0.7410053453083455  0.25899481301730165  0.2589949017137168  1.0000
  Cl  Cl4       1.0  0.2589948469813711  0.7410051769841592  0.7410050838883657  1.0000
  Cl  Cl5       1.0  0.2589949106835282  0.7410051358083792  0.2589948323342412  1.0000
  Cl  Cl6       1.0  0.7410050359832562  0.25899496919787535  0.7410051964825586  1.0000
