data_image0
_chemical_formula_structural       Hg2CrI6
_chemical_formula_sum              "Hg2 Cr1 I6"
_cell_length_a       8.128961633684394
_cell_length_b       8.128961629201276
_cell_length_c       8.128962126841532
_cell_angle_alpha    59.99999707859696
_cell_angle_beta     59.99999453834631
_cell_angle_gamma    59.999992240059136

_space_group_name_H-M_alt    "P 1"
_space_group_IT_number       1

loop_
  _space_group_symop_operation_xyz
  'x, y, z'

loop_
  _atom_site_type_symbol
  _atom_site_label
  _atom_site_symmetry_multiplicity
  _atom_site_fract_x
  _atom_site_fract_y
  _atom_site_fract_z
  _atom_site_occupancy
  Hg  Hg1       1.0  0.24999989356924468  0.2500000710544487  0.24999997583184483  1.0000
  Hg  Hg2       1.0  0.7500001179761369  0.7499999027947065  0.7500001125398509  1.0000
  Cr  Cr1       1.0  1.2752187062040813e-08  2.0038361842840726e-07  0.9999997544229597  1.0000
  I   I1        1.0  0.23089079789075137  0.2308908664438195  0.7691091544778678  1.0000
  I   I2        1.0  0.7691090039287402  0.7691089567409722  0.23089095416694685  1.0000
  I   I3        1.0  0.7691091616219584  0.23089098199832117  0.2308910064528472  1.0000
  I   I4        1.0  0.23089075278184715  0.7691092193540471  0.7691089835234588  1.0000
  I   I5        1.0  0.23089097597137015  0.7691091258911859  0.23089100452402309  1.0000
  I   I6        1.0  0.7691092727101141  0.23089070332015413  0.7691090388286932  1.0000
