data_image0
_chemical_formula_structural       Hg2CoI6
_chemical_formula_sum              "Hg2 Co1 I6"
_cell_length_a       7.6015186241450055
_cell_length_b       7.601518604379901
_cell_length_c       7.601518342593585
_cell_angle_alpha    60.00000142670926
_cell_angle_beta     59.99999860211853
_cell_angle_gamma    59.999995460056766

_space_group_name_H-M_alt    "P 1"
_space_group_IT_number       1

loop_
  _space_group_symop_operation_xyz
  'x, y, z'

loop_
  _atom_site_type_symbol
  _atom_site_label
  _atom_site_symmetry_multiplicity
  _atom_site_fract_x
  _atom_site_fract_y
  _atom_site_fract_z
  _atom_site_occupancy
  Hg  Hg1       1.0  0.24999999809161713  0.24999996900079038  0.25000001318584525  1.0000
  Hg  Hg2       1.0  0.7500000192375882  0.750000005284623  0.7500000266095275  1.0000
  Co  Co1       1.0  2.677402369169031e-08  5.639145534261672e-08  0.9999999873588465  1.0000
  I   I1        1.0  0.24638247998754734  0.24638251380450057  0.7536174892050703  1.0000
  I   I2        1.0  0.7536175111810306  0.7536174250348556  0.24638254718995195  1.0000
  I   I3        1.0  0.7536173850124067  0.24638261879451376  0.2463826265133424  1.0000
  I   I4        1.0  0.24638261836901018  0.75361736999156  0.7536173538068952  1.0000
  I   I5        1.0  0.24638245634933728  0.7536175453745596  0.24638248611134422  1.0000
  I   I6        1.0  0.7536174985754905  0.24638248852468186  0.7536174853563921  1.0000
