data_image0
_chemical_formula_structural       Hg2CaBr6
_chemical_formula_sum              "Hg2 Ca1 Br6"
_cell_length_a       7.67648452730902
_cell_length_b       7.676484582036325
_cell_length_c       7.67648454204696
_cell_angle_alpha    59.99999980295362
_cell_angle_beta     60.00000163662877
_cell_angle_gamma    59.999999260662335

_space_group_name_H-M_alt    "P 1"
_space_group_IT_number       1

loop_
  _space_group_symop_operation_xyz
  'x, y, z'

loop_
  _atom_site_type_symbol
  _atom_site_label
  _atom_site_symmetry_multiplicity
  _atom_site_fract_x
  _atom_site_fract_y
  _atom_site_fract_z
  _atom_site_occupancy
  Hg  Hg1       1.0  0.24999999394365818  0.2500000041750451  0.2500000020189611  1.0000
  Hg  Hg2       1.0  0.749999995642555  0.7499999981660831  0.75000003889761  1.0000
  Ca  Ca1       1.0  1.25638895580228e-07  1.116815196500248e-08  0.9999997348918546  1.0000
  Br  Br1       1.0  0.26294254127102884  0.26294250925527696  0.7370574263101746  1.0000
  Br  Br2       1.0  0.7370573220089416  0.7370574117178941  0.26294259599161063  1.0000
  Br  Br3       1.0  0.7370574540081224  0.26294264343556595  0.2629425580123395  1.0000
  Br  Br4       1.0  0.2629424442438246  0.7370575471686848  0.7370575516809681  1.0000
  Br  Br5       1.0  0.26294255750246437  0.7370574357319672  0.26294252454089245  1.0000
  Br  Br6       1.0  0.7370575633771758  0.26294243897314346  0.7370575640488018  1.0000
