data_image0
_chemical_formula_structural       Hg2CrBr6
_chemical_formula_sum              "Hg2 Cr1 Br6"
_cell_length_a       7.364323388209643
_cell_length_b       7.364323687257749
_cell_length_c       7.364323212717657
_cell_angle_alpha    60.0000001716345
_cell_angle_beta     60.00000164484106
_cell_angle_gamma    59.99999806211123

_space_group_name_H-M_alt    "P 1"
_space_group_IT_number       1

loop_
  _space_group_symop_operation_xyz
  'x, y, z'

loop_
  _atom_site_type_symbol
  _atom_site_label
  _atom_site_symmetry_multiplicity
  _atom_site_fract_x
  _atom_site_fract_y
  _atom_site_fract_z
  _atom_site_occupancy
  Hg  Hg1       1.0  0.2500000198365248  0.25000001071367745  0.25000002658733983  1.0000
  Hg  Hg2       1.0  0.7499999799401009  0.7499999839117611  0.74999997256624  1.0000
  Cr  Cr1       1.0  0.9999998450105962  0.9999999052045274  1.3168192873968394e-07  1.0000
  Br  Br1       1.0  0.23521572831585502  0.23521585046494517  0.764784213710715  1.0000
  Br  Br2       1.0  0.7647843854602057  0.7647843054791091  0.2352156532154299  1.0000
  Br  Br3       1.0  0.764784425452245  0.23521562650419775  0.23521557692344003  1.0000
  Br  Br4       1.0  0.23521562220304626  0.7647843514904537  0.764784401174609  1.0000
  Br  Br5       1.0  0.23521553774873244  0.7647844265046118  0.2352155483973491  1.0000
  Br  Br6       1.0  0.7647844727346322  0.23521555481619802  0.7647844506972776  1.0000
