data_image0
_chemical_formula_structural       Hg2CoBr6
_chemical_formula_sum              "Hg2 Co1 Br6"
_cell_length_a       7.178749256709319
_cell_length_b       7.1787491697259345
_cell_length_c       7.17874926603483
_cell_angle_alpha    60.00000004152982
_cell_angle_beta     60.00000192492863
_cell_angle_gamma    59.99999902832858

_space_group_name_H-M_alt    "P 1"
_space_group_IT_number       1

loop_
  _space_group_symop_operation_xyz
  'x, y, z'

loop_
  _atom_site_type_symbol
  _atom_site_label
  _atom_site_symmetry_multiplicity
  _atom_site_fract_x
  _atom_site_fract_y
  _atom_site_fract_z
  _atom_site_occupancy
  Hg  Hg1       1.0  0.2500000129666948  0.24999999300241305  0.24999996779816813  1.0000
  Hg  Hg2       1.0  0.749999999905842  0.7499999994800797  0.7500000171302285  1.0000
  Co  Co1       1.0  5.232523671659268e-09  0.9999999505239691  2.769375479311865e-08  1.0000
  Br  Br1       1.0  0.24154861510330733  0.24154870298544326  0.7584513125543305  1.0000
  Br  Br2       1.0  0.7584513319183752  0.7584512843788404  0.24154869392859335  1.0000
  Br  Br3       1.0  0.7584513442326145  0.24154870208262194  0.24154865476085136  1.0000
  Br  Br4       1.0  0.24154864626586753  0.7584513671730226  0.758451314111999  1.0000
  Br  Br5       1.0  0.2415486603145171  0.7584513135787149  0.24154871443318005  1.0000
  Br  Br6       1.0  0.758451385101531  0.24154868743412772  0.7584513056782991  1.0000
