data_image0
_chemical_formula_structural       Hg2CdCl6
_chemical_formula_sum              "Hg2 Cd1 Cl6"
_cell_length_a       6.966420520430796
_cell_length_b       6.966421131574081
_cell_length_c       6.966419986776668
_cell_angle_alpha    60.00000812127232
_cell_angle_beta     60.00000323978138
_cell_angle_gamma    60.00000622896071

_space_group_name_H-M_alt    "P 1"
_space_group_IT_number       1

loop_
  _space_group_symop_operation_xyz
  'x, y, z'

loop_
  _atom_site_type_symbol
  _atom_site_label
  _atom_site_symmetry_multiplicity
  _atom_site_fract_x
  _atom_site_fract_y
  _atom_site_fract_z
  _atom_site_occupancy
  Hg  Hg1       1.0  0.25000002887440775  0.2500000213393457  0.24999997076541303  1.0000
  Hg  Hg2       1.0  0.7499999697434253  0.7500000218243849  0.7499999530756093  1.0000
  Cd  Cd1       1.0  1.79483708158643e-08  0.9999999859354464  0.999999874608744  1.0000
  Cl  Cl1       1.0  0.2586890797899185  0.2586891161358752  0.7413108201309849  1.0000
  Cl  Cl2       1.0  0.7413106586282898  0.7413110413023228  0.25868908336787777  1.0000
  Cl  Cl3       1.0  0.7413108306209267  0.2586889609683011  0.2586892076687537  1.0000
  Cl  Cl4       1.0  0.25868924567081725  0.7413108044205676  0.7413109985258448  1.0000
  Cl  Cl5       1.0  0.2586890993507532  0.7413110142910335  0.2586890768298744  1.0000
  Cl  Cl6       1.0  0.7413110927118394  0.2586890253565658  0.7413109659300061  1.0000
