data_image0
_chemical_formula_structural       Hg2CoBr6
_chemical_formula_sum              "Hg2 Co1 Br6"
_cell_length_a       7.182383851282434
_cell_length_b       7.182384112885647
_cell_length_c       7.182384069265216
_cell_angle_alpha    59.9999995418108
_cell_angle_beta     59.999999701700425
_cell_angle_gamma    60.00000029068369

_space_group_name_H-M_alt    "P 1"
_space_group_IT_number       1

loop_
  _space_group_symop_operation_xyz
  'x, y, z'

loop_
  _atom_site_type_symbol
  _atom_site_label
  _atom_site_symmetry_multiplicity
  _atom_site_fract_x
  _atom_site_fract_y
  _atom_site_fract_z
  _atom_site_occupancy
  Hg  Hg1       1.0  0.25000002727186543  0.24999999190491856  0.24999998707000495  1.0000
  Hg  Hg2       1.0  0.7499999892191025  0.7499999978824413  0.7500000159165535  1.0000
  Co  Co1       1.0  1.0116984839379978e-08  3.4104136977878675e-09  0.9999999417213725  1.0000
  Br  Br1       1.0  0.24161155803667822  0.2416116203343418  0.7583884082172339  1.0000
  Br  Br2       1.0  0.7583884045397401  0.7583883865050842  0.24161160902368  1.0000
  Br  Br3       1.0  0.7583884029650757  0.24161160911931923  0.2416116007776722  1.0000
  Br  Br4       1.0  0.24161155865285122  0.7583884198877923  0.7583884267430748  1.0000
  Br  Br5       1.0  0.2416115837945659  0.7583883961384248  0.2416116101309963  1.0000
  Br  Br6       1.0  0.758388467887143  0.2416115748916626  0.7583883985617819  1.0000
