data_image0
_chemical_formula_structural       Hg2CI6
_chemical_formula_sum              "Hg2 C1 I6"
_cell_length_a       7.565794297364617
_cell_length_b       7.5657938825182605
_cell_length_c       7.5657939745248495
_cell_angle_alpha    60.00000116315739
_cell_angle_beta     59.999999709889735
_cell_angle_gamma    60.00000094763756

_space_group_name_H-M_alt    "P 1"
_space_group_IT_number       1

loop_
  _space_group_symop_operation_xyz
  'x, y, z'

loop_
  _atom_site_type_symbol
  _atom_site_label
  _atom_site_symmetry_multiplicity
  _atom_site_fract_x
  _atom_site_fract_y
  _atom_site_fract_z
  _atom_site_occupancy
  Hg  Hg1       1.0  0.25000001510745884  0.24999996608348987  0.2500000319785442  1.0000
  Hg  Hg2       1.0  0.7500000004590982  0.7500000099471335  0.7500000030407161  1.0000
  C   C1        1.0  0.9999999836877279  1.0845908251936618e-07  1.2083083445313028e-08  1.0000
  I   I1        1.0  0.24872468997867767  0.24872467904170423  0.7512753727921737  1.0000
  I   I2        1.0  0.7512752715382844  0.7512753034640878  0.24872470451863724  1.0000
  I   I3        1.0  0.7512753347121028  0.24872470153872006  0.24872463896139707  1.0000
  I   I4        1.0  0.24872473681647017  0.7512752210717556  0.751275226926158  1.0000
  I   I5        1.0  0.2487246952171114  0.7512752801488121  0.24872478358619007  1.0000
  I   I6        1.0  0.7512752899019048  0.2487247185449011  0.7512752011340244  1.0000
