data_image0
_chemical_formula_structural       Hg2CI6
_chemical_formula_sum              "Hg2 C1 I6"
_cell_length_a       7.567188376521326
_cell_length_b       7.567188296618821
_cell_length_c       7.567188993689732
_cell_angle_alpha    59.99999513218258
_cell_angle_beta     59.9999952728921
_cell_angle_gamma    59.99999838524451

_space_group_name_H-M_alt    "P 1"
_space_group_IT_number       1

loop_
  _space_group_symop_operation_xyz
  'x, y, z'

loop_
  _atom_site_type_symbol
  _atom_site_label
  _atom_site_symmetry_multiplicity
  _atom_site_fract_x
  _atom_site_fract_y
  _atom_site_fract_z
  _atom_site_occupancy
  Hg  Hg1       1.0  0.24999999077591573  0.2499999880151292  0.25000002885617184  1.0000
  Hg  Hg2       1.0  0.7499999765325661  0.7500001436982289  0.749999898170571  1.0000
  C   C1        1.0  7.29774288977839e-08  3.0751387409804587e-07  0.9999996022796783  1.0000
  I   I1        1.0  0.24867540786346895  0.2486755338315548  0.7513245227512693  1.0000
  I   I2        1.0  0.7513242877290512  0.7513241495589446  0.2486758237621547  1.0000
  I   I3        1.0  0.7513244498951501  0.2486755035442466  0.24867547087969302  1.0000
  I   I4        1.0  0.2486755376206844  0.751324608747183  0.751324475576758  1.0000
  I   I5        1.0  0.24867565120230556  0.751324445325136  0.24867556399335686  1.0000
  I   I6        1.0  0.7513246104470168  0.24867534812296765  0.7513246466515398  1.0000
