data_image0
_chemical_formula_structural       Hg2CoI6
_chemical_formula_sum              "Hg2 Co1 I6"
_cell_length_a       7.602521683458788
_cell_length_b       7.602521981670755
_cell_length_c       7.602521812271442
_cell_angle_alpha    59.99999923807937
_cell_angle_beta     59.99999961101779
_cell_angle_gamma    60.00000052311347

_space_group_name_H-M_alt    "P 1"
_space_group_IT_number       1

loop_
  _space_group_symop_operation_xyz
  'x, y, z'

loop_
  _atom_site_type_symbol
  _atom_site_label
  _atom_site_symmetry_multiplicity
  _atom_site_fract_x
  _atom_site_fract_y
  _atom_site_fract_z
  _atom_site_occupancy
  Hg  Hg1       1.0  0.2499999964489862  0.2499999875826998  0.2499999967768267  1.0000
  Hg  Hg2       1.0  0.7499999778858905  0.7500000062443378  0.7500000190348969  1.0000
  Co  Co1       1.0  0.9999999975914464  0.9999999935561112  8.334740221913838e-08  1.0000
  I   I1        1.0  0.24633058501699392  0.24633059088815829  0.7536693869163131  1.0000
  I   I2        1.0  0.7536694740490391  0.7536694995971902  0.24633049479402647  1.0000
  I   I3        1.0  0.7536694340246375  0.24633053276542466  0.2463306193073883  1.0000
  I   I4        1.0  0.24633058975808644  0.753669390178853  0.7536693888068504  1.0000
  I   I5        1.0  0.24633053237008903  0.7536694184605399  0.2463306129899175  1.0000
  I   I6        1.0  0.7536694122013267  0.24633059630913204  0.7536693769790999  1.0000
