data_image0
_chemical_formula_structural       Hg2CBr6
_chemical_formula_sum              "Hg2 C1 Br6"
_cell_length_a       8.606033201428808
_cell_length_b       8.606030433097875
_cell_length_c       8.60603365266216
_cell_angle_alpha    60.00000043843802
_cell_angle_beta     59.99998600184141
_cell_angle_gamma    60.00000275924462

_space_group_name_H-M_alt    "P 1"
_space_group_IT_number       1

loop_
  _space_group_symop_operation_xyz
  'x, y, z'

loop_
  _atom_site_type_symbol
  _atom_site_label
  _atom_site_symmetry_multiplicity
  _atom_site_fract_x
  _atom_site_fract_y
  _atom_site_fract_z
  _atom_site_occupancy
  Hg  Hg1       1.0  0.25000007179878275  0.2499999691804438  0.25000001815914163  1.0000
  Hg  Hg2       1.0  0.7499999895665438  0.7499998121919824  0.7500001372146569  1.0000
  C   C1        1.0  6.512858309082112e-07  0.9999982353263615  8.007085212933701e-07  1.0000
  Br  Br1       1.0  0.18664759700895336  0.18664822127083014  0.8133519658333719  1.0000
  Br  Br2       1.0  0.8133522960508626  0.8133527171013208  0.1866473396289536  1.0000
  Br  Br3       1.0  0.8133520276235938  0.1866480927622213  0.18664752048087133  1.0000
  Br  Br4       1.0  0.18664790863697106  0.8133523859409182  0.8133521791316122  1.0000
  Br  Br5       1.0  0.18664783190898732  0.8133523412889632  0.18664732235571913  1.0000
  Br  Br6       1.0  0.8133517770080363  0.18664820572405777  0.8133523359632372  1.0000
