data_image0
_chemical_formula_structural       Hg2CrF6
_chemical_formula_sum              "Hg2 Cr1 F6"
_cell_length_a       5.735056854149303
_cell_length_b       5.735056960757338
_cell_length_c       5.735056964487762
_cell_angle_alpha    60.000000495530365
_cell_angle_beta     60.000000597728686
_cell_angle_gamma    60.00000002565347

_space_group_name_H-M_alt    "P 1"
_space_group_IT_number       1

loop_
  _space_group_symop_operation_xyz
  'x, y, z'

loop_
  _atom_site_type_symbol
  _atom_site_label
  _atom_site_symmetry_multiplicity
  _atom_site_fract_x
  _atom_site_fract_y
  _atom_site_fract_z
  _atom_site_occupancy
  Hg  Hg1       1.0  0.24999993083688854  0.2500000104325161  0.25000002182075304  1.0000
  Hg  Hg2       1.0  0.7500000204723143  0.7500000782794461  0.749999837320072  1.0000
  Cr  Cr1       1.0  0.999999835022737  0.9999999935933787  2.583144630840083e-07  1.0000
  F   F1        1.0  0.238001579139064  0.23800143831369375  0.761998389021284  1.0000
  F   F2        1.0  0.7619984140888878  0.761998458199588  0.2380016411609077  1.0000
  F   F3        1.0  0.7619984944401698  0.23800161151228  0.23800152613665781  1.0000
  F   F4        1.0  0.23800160838407097  0.7619984152689954  0.7619983719077613  1.0000
  F   F5        1.0  0.2380015813739183  0.761998374066075  0.23800164563191623  1.0000
  F   F6        1.0  0.7619985433954459  0.23800159292005527  0.7619983341093401  1.0000
