data_image0
_chemical_formula_structural       Hg2CoF6
_chemical_formula_sum              "Hg2 Co1 F6"
_cell_length_a       5.355844417861897
_cell_length_b       5.355844871046577
_cell_length_c       5.355844626714847
_cell_angle_alpha    59.99999929264566
_cell_angle_beta     60.000000918138426
_cell_angle_gamma    59.99999981336468

_space_group_name_H-M_alt    "P 1"
_space_group_IT_number       1

loop_
  _space_group_symop_operation_xyz
  'x, y, z'

loop_
  _atom_site_type_symbol
  _atom_site_label
  _atom_site_symmetry_multiplicity
  _atom_site_fract_x
  _atom_site_fract_y
  _atom_site_fract_z
  _atom_site_occupancy
  Hg  Hg1       1.0  0.25000006124983515  0.24999988281360264  0.2500000758707425  1.0000
  Hg  Hg2       1.0  0.7499999584118812  0.7500000463343579  0.7499999938318426  1.0000
  Co  Co1       1.0  0.9999998996262072  1.006167613031721e-07  0.9999999382635809  1.0000
  F   F1        1.0  0.24360984498045044  0.24360993372116338  0.75639009817737  1.0000
  F   F2        1.0  0.7563901732651068  0.7563900320147148  0.24360978216437462  1.0000
  F   F3        1.0  0.7563901635261231  0.24360990909440672  0.24360984473124458  1.0000
  F   F4        1.0  0.24360968293729102  0.7563901709786918  0.756390275317419  1.0000
  F   F5        1.0  0.24360993245145424  0.7563900738041915  0.24360978608236908  1.0000
  F   F6        1.0  0.7563902749098721  0.24360984848353234  0.7563901988018901  1.0000
