data_image0
_chemical_formula_structural       Hg2CrBr6
_chemical_formula_sum              "Hg2 Cr1 Br6"
_cell_length_a       7.364037044150379
_cell_length_b       7.364037239428767
_cell_length_c       7.364037325349026
_cell_angle_alpha    59.9999978028286
_cell_angle_beta     60.00000045945488
_cell_angle_gamma    60.00000004979382

_space_group_name_H-M_alt    "P 1"
_space_group_IT_number       1

loop_
  _space_group_symop_operation_xyz
  'x, y, z'

loop_
  _atom_site_type_symbol
  _atom_site_label
  _atom_site_symmetry_multiplicity
  _atom_site_fract_x
  _atom_site_fract_y
  _atom_site_fract_z
  _atom_site_occupancy
  Hg  Hg1       1.0  0.24999999279267715  0.250000021998375  0.24999997577849079  1.0000
  Hg  Hg2       1.0  0.7499999915255845  0.7499999795116732  0.7500000414066157  1.0000
  Cr  Cr1       1.0  4.172265062374277e-08  0.9999997854545236  0.9999999098778191  1.0000
  Br  Br1       1.0  0.23528764245974368  0.2352877465655711  0.764712329046546  1.0000
  Br  Br2       1.0  0.7647123473696898  0.7647122948599161  0.23528764369804267  1.0000
  Br  Br3       1.0  0.7647122400968404  0.23528785897585625  0.2352877552873705  1.0000
  Br  Br4       1.0  0.23528769857194307  0.7647122888907957  0.7647123378335904  1.0000
  Br  Br5       1.0  0.23528771725309353  0.7647123181756191  0.23528769013507675  1.0000
  Br  Br6       1.0  0.7647123157527883  0.23528770661843434  0.7647123209391338  1.0000
