data_image0
_chemical_formula_structural       Hg2CrCl6
_chemical_formula_sum              "Hg2 Cr1 Cl6"
_cell_length_a       7.104110649116096
_cell_length_b       7.104111155265537
_cell_length_c       7.104110444515352
_cell_angle_alpha    60.00000411061834
_cell_angle_beta     60.00000263368974
_cell_angle_gamma    60.00000286333577

_space_group_name_H-M_alt    "P 1"
_space_group_IT_number       1

loop_
  _space_group_symop_operation_xyz
  'x, y, z'

loop_
  _atom_site_type_symbol
  _atom_site_label
  _atom_site_symmetry_multiplicity
  _atom_site_fract_x
  _atom_site_fract_y
  _atom_site_fract_z
  _atom_site_occupancy
  Hg  Hg1       1.0  0.2500000230175434  0.2500000027869538  0.24999998443129343  1.0000
  Hg  Hg2       1.0  0.7499999860587506  0.7500000135328455  0.7499999936124626  1.0000
  Cr  Cr1       1.0  8.75573669875442e-08  3.965187135365741e-08  0.9999999744015481  1.0000
  Cl  Cl1       1.0  0.23058066829161192  0.23058094650613234  0.7694193469078101  1.0000
  Cl  Cl2       1.0  0.7694189474186302  0.7694192697970262  0.23058108395913926  1.0000
  Cl  Cl3       1.0  0.7694191940344692  0.230580844283376  0.2305808494654699  1.0000
  Cl  Cl4       1.0  0.23058089943297236  0.7694190651487671  0.7694189624644334  1.0000
  Cl  Cl5       1.0  0.23058097851956066  0.7694189809265054  0.23058083886612457  1.0000
  Cl  Cl6       1.0  0.7694191818202115  0.23058085954585933  0.7694189389166088  1.0000
