data_image0
_chemical_formula_structural       Hg2CaI6
_chemical_formula_sum              "Hg2 Ca1 I6"
_cell_length_a       9.455031209982888
_cell_length_b       9.45503031985421
_cell_length_c       9.455030477961627
_cell_angle_alpha    60.00000680683232
_cell_angle_beta     59.999991592368985
_cell_angle_gamma    59.99999366482293

_space_group_name_H-M_alt    "P 1"
_space_group_IT_number       1

loop_
  _space_group_symop_operation_xyz
  'x, y, z'

loop_
  _atom_site_type_symbol
  _atom_site_label
  _atom_site_symmetry_multiplicity
  _atom_site_fract_x
  _atom_site_fract_y
  _atom_site_fract_z
  _atom_site_occupancy
  Hg  Hg1       1.0  0.2500000571709318  0.25000031273521334  0.24999959469362643  1.0000
  Hg  Hg2       1.0  0.7500000101171053  0.7499997736980526  0.7500004412122341  1.0000
  Ca  Ca1       1.0  1.6337892969750355e-08  0.9999996981865423  1.6389052522953917e-07  1.0000
  I   I1        1.0  0.23609642842382794  0.23609793769794016  0.7639026319749307  1.0000
  I   I2        1.0  0.7639037411406587  0.7639021863000456  0.2360970325834944  1.0000
  I   I3        1.0  0.7639026554880677  0.23609803386186257  0.23609654276034153  1.0000
  I   I4        1.0  0.23609702881896585  0.7639020694108095  0.763903669870522  1.0000
  I   I5        1.0  0.23609745828961298  0.7639030773310524  0.2360968725345222  1.0000
  I   I6        1.0  0.7639026146497108  0.2360969262006417  0.7639030391202162  1.0000
