data_image0
_chemical_formula_structural       Hg2CdBr6
_chemical_formula_sum              "Hg2 Cd1 Br6"
_cell_length_a       7.410563264127382
_cell_length_b       7.4105631743938
_cell_length_c       7.410563577260738
_cell_angle_alpha    59.999997830657826
_cell_angle_beta     59.99999846453636
_cell_angle_gamma    60.000000181289096

_space_group_name_H-M_alt    "P 1"
_space_group_IT_number       1

loop_
  _space_group_symop_operation_xyz
  'x, y, z'

loop_
  _atom_site_type_symbol
  _atom_site_label
  _atom_site_symmetry_multiplicity
  _atom_site_fract_x
  _atom_site_fract_y
  _atom_site_fract_z
  _atom_site_occupancy
  Hg  Hg1       1.0  0.2500000119308745  0.24999998701661963  0.24999998085803804  1.0000
  Hg  Hg2       1.0  0.7499999818692441  0.7500000106309029  0.7500000054694083  1.0000
  Cd  Cd1       1.0  6.981840992784669e-08  4.297024031117928e-08  1.1076926338750945e-08  1.0000
  Br  Br1       1.0  0.26269801259446673  0.26269802660283803  0.7373019919059144  1.0000
  Br  Br2       1.0  0.7373019946621717  0.7373020007933118  0.2626980254465347  1.0000
  Br  Br3       1.0  0.7373019821006087  0.2626979788984165  0.2626980140497394  1.0000
  Br  Br4       1.0  0.2626980766571154  0.7373019080181065  0.7373019573805032  1.0000
  Br  Br5       1.0  0.26269799932566507  0.7373019924023245  0.26269802483687926  1.0000
  Br  Br6       1.0  0.7373018875728895  0.26269805482624126  0.7373019874519774  1.0000
