data_image0
_chemical_formula_structural       Hg2CuCl6
_chemical_formula_sum              "Hg2 Cu1 Cl6"
_cell_length_a       6.769430711316246
_cell_length_b       6.769430118226339
_cell_length_c       6.769430908519076
_cell_angle_alpha    59.999998588821356
_cell_angle_beta     59.999994495883726
_cell_angle_gamma    59.9999953265006

_space_group_name_H-M_alt    "P 1"
_space_group_IT_number       1

loop_
  _space_group_symop_operation_xyz
  'x, y, z'

loop_
  _atom_site_type_symbol
  _atom_site_label
  _atom_site_symmetry_multiplicity
  _atom_site_fract_x
  _atom_site_fract_y
  _atom_site_fract_z
  _atom_site_occupancy
  Hg  Hg1       1.0  0.24999990003249212  0.2500002276983202  0.24999999064618603  1.0000
  Hg  Hg2       1.0  0.7499999746833683  0.7500000589109531  0.7499999177670919  1.0000
  Cu  Cu1       1.0  1.837044250095388e-07  2.7138437483534156e-08  3.6392551893728933e-08  1.0000
  Cl  Cl1       1.0  0.2428036395186351  0.24280344686158292  0.7571961562709241  1.0000
  Cl  Cl2       1.0  0.7571963660470786  0.757196477901867  0.24280323390906458  1.0000
  Cl  Cl3       1.0  0.757196809945878  0.24280328665432116  0.2428036145934953  1.0000
  Cl  Cl4       1.0  0.2428035857802143  0.7571962147495882  0.7571967686344564  1.0000
  Cl  Cl5       1.0  0.2428031219663841  0.7571965100576259  0.2428037942895157  1.0000
  Cl  Cl6       1.0  0.7571964615498609  0.24280363181334605  0.75719656254046  1.0000
