data_image0
_chemical_formula_structural       Hg2CrCl6
_chemical_formula_sum              "Hg2 Cr1 Cl6"
_cell_length_a       7.103484802620978
_cell_length_b       7.103484734324739
_cell_length_c       7.10348448195037
_cell_angle_alpha    60.00000138113732
_cell_angle_beta     60.000000772466976
_cell_angle_gamma    59.999998512710164

_space_group_name_H-M_alt    "P 1"
_space_group_IT_number       1

loop_
  _space_group_symop_operation_xyz
  'x, y, z'

loop_
  _atom_site_type_symbol
  _atom_site_label
  _atom_site_symmetry_multiplicity
  _atom_site_fract_x
  _atom_site_fract_y
  _atom_site_fract_z
  _atom_site_occupancy
  Hg  Hg1       1.0  0.2499999785477553  0.24999998483134936  0.25000011715114184  1.0000
  Hg  Hg2       1.0  0.7499999778087261  0.7499999596664859  0.7500001489989797  1.0000
  Cr  Cr1       1.0  8.28039861811067e-08  5.172435470069486e-09  0.9999995322760844  1.0000
  Cl  Cl1       1.0  0.23055399709273774  0.2305542596689878  0.769445708554905  1.0000
  Cl  Cl2       1.0  0.7694458681010107  0.76944574862227  0.23055421933991882  1.0000
  Cl  Cl3       1.0  0.7694456902970086  0.23055433139393772  0.23055400330888687  1.0000
  Cl  Cl4       1.0  0.2305540461126027  0.7694459803471165  0.7694461793387435  1.0000
  Cl  Cl5       1.0  0.2305542529506259  0.7694456983098177  0.23055409297769486  1.0000
  Cl  Cl6       1.0  0.7694461102701087  0.23055407894579277  0.7694459843811793  1.0000
