data_image0
_chemical_formula_structural       Hg2CrI6
_chemical_formula_sum              "Hg2 Cr1 I6"
_cell_length_a       8.15230307343471
_cell_length_b       8.152304542781636
_cell_length_c       8.15230479976346
_cell_angle_alpha    59.99998735904939
_cell_angle_beta     59.99999953873402
_cell_angle_gamma    60.00000789602443

_space_group_name_H-M_alt    "P 1"
_space_group_IT_number       1

loop_
  _space_group_symop_operation_xyz
  'x, y, z'

loop_
  _atom_site_type_symbol
  _atom_site_label
  _atom_site_symmetry_multiplicity
  _atom_site_fract_x
  _atom_site_fract_y
  _atom_site_fract_z
  _atom_site_occupancy
  Hg  Hg1       1.0  0.25000020689418556  0.24999981610370037  0.24999993725973796  1.0000
  Hg  Hg2       1.0  0.7499997319377172  0.7500001514013002  0.7499999745253058  1.0000
  Cr  Cr1       1.0  0.9999996908692622  0.999999746106129  9.426750294487928e-07  1.0000
  I   I1        1.0  0.23022352647959132  0.23022359843286194  0.7697764300050285  1.0000
  I   I2        1.0  0.7697768152092275  0.7697766349845431  0.2302232332606397  1.0000
  I   I3        1.0  0.769775837055808  0.2302237097652674  0.23022437816995475  1.0000
  I   I4        1.0  0.2302243967995541  0.7697756913614581  0.7697756472129157  1.0000
  I   I5        1.0  0.23022353062248418  0.7697767596690204  0.23022368099552468  1.0000
  I   I6        1.0  0.7697762755698255  0.2302239244472773  0.7697757965125489  1.0000
