data_image0
_chemical_formula_structural       Hg2CaF6
_chemical_formula_sum              "Hg2 Ca1 F6"
_cell_length_a       5.799933528065407
_cell_length_b       5.799933416289535
_cell_length_c       5.79993365585821
_cell_angle_alpha    59.99999897545583
_cell_angle_beta     60.00000089792196
_cell_angle_gamma    59.99999976055461

_space_group_name_H-M_alt    "P 1"
_space_group_IT_number       1

loop_
  _space_group_symop_operation_xyz
  'x, y, z'

loop_
  _atom_site_type_symbol
  _atom_site_label
  _atom_site_symmetry_multiplicity
  _atom_site_fract_x
  _atom_site_fract_y
  _atom_site_fract_z
  _atom_site_occupancy
  Hg  Hg1       1.0  0.24999979694184543  0.24999962951323138  0.25000015636466155  1.0000
  Hg  Hg2       1.0  0.7499994876122746  0.7500002167696572  0.7499999152081428  1.0000
  Ca  Ca1       1.0  0.9999999461253136  6.334960135440173e-09  0.9999998789406196  1.0000
  F   F1        1.0  0.25977915752734665  0.2597789485289452  0.7402210636211486  1.0000
  F   F2        1.0  0.7402208027374425  0.7402211342591215  0.2597792001270185  1.0000
  F   F3        1.0  0.7402212936233771  0.25977885012232704  0.2597791683990132  1.0000
  F   F4        1.0  0.25977908879208333  0.7402210890733133  0.7402209646908245  1.0000
  F   F5        1.0  0.25977926715411953  0.7402210141454338  0.25977878978058544  1.0000
  F   F6        1.0  0.7402211659753413  0.25977911932231673  0.7402208190874648  1.0000
