data_image0
_chemical_formula_structural       Hg2CCl6
_chemical_formula_sum              "Hg2 C1 Cl6"
_cell_length_a       8.21791721982479
_cell_length_b       8.200233201015154
_cell_length_c       8.218076976989297
_cell_angle_alpha    59.92182290056596
_cell_angle_beta     59.99922842457447
_cell_angle_gamma    59.92145599854803

_space_group_name_H-M_alt    "P 1"
_space_group_IT_number       1

loop_
  _space_group_symop_operation_xyz
  'x, y, z'

loop_
  _atom_site_type_symbol
  _atom_site_label
  _atom_site_symmetry_multiplicity
  _atom_site_fract_x
  _atom_site_fract_y
  _atom_site_fract_z
  _atom_site_occupancy
  Hg  Hg1       1.0  0.2466891423087698  0.26045622842494204  0.2466205713310037  1.0000
  Hg  Hg2       1.0  0.7505878932639277  0.7484977632617483  0.7505459201606994  1.0000
  C   C1        1.0  0.016733673018659682  0.9499304039991722  0.016730296909319414  1.0000
  Cl  Cl1       1.0  0.17955880301114527  0.18342913425718532  0.8184470324993676  1.0000
  Cl  Cl2       1.0  0.8267359252495445  0.8305828576449558  0.1715975735723815  1.0000
  Cl  Cl3       1.0  0.8182963875898696  0.18329621948609962  0.17974713030002273  1.0000
  Cl  Cl4       1.0  0.17164805384857595  0.8306668995404466  0.8266546002303742  1.0000
  Cl  Cl5       1.0  0.17148977943235236  0.8308085487486194  0.17136735810952544  1.0000
  Cl  Cl6       1.0  0.8182603891220133  0.18233181534389414  0.8182897715573743  1.0000
