data_image0
_chemical_formula_structural       Hg2CCl6
_chemical_formula_sum              "Hg2 C1 Cl6"
_cell_length_a       8.218301241071433
_cell_length_b       8.218297939593405
_cell_length_c       8.199729561859758
_cell_angle_alpha    59.92898101034686
_cell_angle_beta     59.92901706656184
_cell_angle_gamma    60.00121089154425

_space_group_name_H-M_alt    "P 1"
_space_group_IT_number       1

loop_
  _space_group_symop_operation_xyz
  'x, y, z'

loop_
  _atom_site_type_symbol
  _atom_site_label
  _atom_site_symmetry_multiplicity
  _atom_site_fract_x
  _atom_site_fract_y
  _atom_site_fract_z
  _atom_site_occupancy
  Hg  Hg1       1.0  0.24626097235693314  0.24624682562119762  0.26121182154630884  1.0000
  Hg  Hg2       1.0  0.7505210469990945  0.750514400583077  0.7483822678531228  1.0000
  C   C1        1.0  0.016739655049165587  0.016738658683493373  0.9497964691208656  1.0000
  Cl  Cl1       1.0  0.17141121894440453  0.17139683993971638  0.8305432114405363  1.0000
  Cl  Cl2       1.0  0.8184424858413889  0.8184574546658792  0.18306382787950773  1.0000
  Cl  Cl3       1.0  0.8185327256853572  0.18015929301276679  0.1828582661205909  1.0000
  Cl  Cl4       1.0  0.17137016864053783  0.8265715232692694  0.83064735833653  1.0000
  Cl  Cl5       1.0  0.1801296773020562  0.818547661688053  0.1828748158122449  1.0000
  Cl  Cl6       1.0  0.8265917055152473  0.1713673326940022  0.8306224591562021  1.0000
