data_image0
_chemical_formula_structural       Hg2FeCl6
_chemical_formula_sum              "Hg2 Fe1 Cl6"
_cell_length_a       7.0094755652162295
_cell_length_b       7.009474642889186
_cell_length_c       7.009475502964952
_cell_angle_alpha    59.999998689567754
_cell_angle_beta     60.000000498656725
_cell_angle_gamma    59.99999552691832

_space_group_name_H-M_alt    "P 1"
_space_group_IT_number       1

loop_
  _space_group_symop_operation_xyz
  'x, y, z'

loop_
  _atom_site_type_symbol
  _atom_site_label
  _atom_site_symmetry_multiplicity
  _atom_site_fract_x
  _atom_site_fract_y
  _atom_site_fract_z
  _atom_site_occupancy
  Hg  Hg1       1.0  0.2499999935659824  0.24999995876094522  0.25000008912398836  1.0000
  Hg  Hg2       1.0  0.7500000295671336  0.7499999916026884  0.7499999242022791  1.0000
  Fe  Fe1       1.0  5.061940859236492e-08  0.9999999370982604  1.430986298441569e-07  1.0000
  Cl  Cl1       1.0  0.22486306843090356  0.22486270300993366  0.7751371602481454  1.0000
  Cl  Cl2       1.0  0.7751370998853363  0.7751372071664732  0.22486282625969767  1.0000
  Cl  Cl3       1.0  0.7751371626507387  0.22486276426651455  0.22486310068982154  1.0000
  Cl  Cl4       1.0  0.22486287950249875  0.7751371389208107  0.775136898181733  1.0000
  Cl  Cl5       1.0  0.2248627685227541  0.7751373004230853  0.22486301885414844  1.0000
  Cl  Cl6       1.0  0.7751369588651249  0.22486298366924165  0.7751368756155788  1.0000
