data_image0
_chemical_formula_structural       Hg2FeI6
_chemical_formula_sum              "Hg2 Fe1 I6"
_cell_length_a       7.939808425222897
_cell_length_b       7.939807339896125
_cell_length_c       7.939808515670124
_cell_angle_alpha    60.000005150109985
_cell_angle_beta     59.99999926106005
_cell_angle_gamma    60.000005449063295

_space_group_name_H-M_alt    "P 1"
_space_group_IT_number       1

loop_
  _space_group_symop_operation_xyz
  'x, y, z'

loop_
  _atom_site_type_symbol
  _atom_site_label
  _atom_site_symmetry_multiplicity
  _atom_site_fract_x
  _atom_site_fract_y
  _atom_site_fract_z
  _atom_site_occupancy
  Hg  Hg1       1.0  0.25000001942324884  0.2499999634549616  0.25000007121692996  1.0000
  Hg  Hg2       1.0  0.7499999888858696  0.7500000461610992  0.7499998606134836  1.0000
  Fe  Fe1       1.0  2.762373543912895e-07  0.9999996992052832  1.4326418426657155e-07  1.0000
  I   I1        1.0  0.2159289608284429  0.21592877887764036  0.7840711666513738  1.0000
  I   I2        1.0  0.7840708929726963  0.7840710965376816  0.21592894605819932  1.0000
  I   I3        1.0  0.7840707831144343  0.21592905919327757  0.21592910055301623  1.0000
  I   I4        1.0  0.21592909784219447  0.7840711972287268  0.784070804297071  1.0000
  I   I5        1.0  0.21592930886084669  0.7840708016284419  0.21592923535041378  1.0000
  I   I6        1.0  0.7840706716523348  0.21592934373089473  0.7840706991827704  1.0000
