data_image0
_chemical_formula_structural       Hg2FeBr6
_chemical_formula_sum              "Hg2 Fe1 Br6"
_cell_length_a       7.743328461267559
_cell_length_b       7.743329608343775
_cell_length_c       7.743329266512281
_cell_angle_alpha    59.99999615655759
_cell_angle_beta     59.99999911668477
_cell_angle_gamma    60.00000143266668

_space_group_name_H-M_alt    "P 1"
_space_group_IT_number       1

loop_
  _space_group_symop_operation_xyz
  'x, y, z'

loop_
  _atom_site_type_symbol
  _atom_site_label
  _atom_site_symmetry_multiplicity
  _atom_site_fract_x
  _atom_site_fract_y
  _atom_site_fract_z
  _atom_site_occupancy
  Hg  Hg1       1.0  0.24999993346791943  0.2500000288245761  0.24999999645440618  1.0000
  Hg  Hg2       1.0  0.7500000490627899  0.7499999757563126  0.7499999940041675  1.0000
  Fe  Fe1       1.0  4.222196200743738e-08  0.9999999493863264  0.9999999938643853  1.0000
  Br  Br1       1.0  0.20513592381606655  0.20513600516508404  0.7948640110381141  1.0000
  Br  Br2       1.0  0.7948641143265467  0.7948640025791609  0.20513593711848893  1.0000
  Br  Br3       1.0  0.7948640295520182  0.20513590781907376  0.20513608937555544  1.0000
  Br  Br4       1.0  0.20513593440695263  0.7948640540565216  0.7948640027504149  1.0000
  Br  Br5       1.0  0.20513583382379388  0.7948642565423052  0.2051358719473603  1.0000
  Br  Br6       1.0  0.7948641451506963  0.20513583028580257  0.7948641140344329  1.0000
