data_image0
_chemical_formula_structural       Hg2FeF6
_chemical_formula_sum              "Hg2 Fe1 F6"
_cell_length_a       5.74844647620015
_cell_length_b       5.748446299322173
_cell_length_c       5.748446379819659
_cell_angle_alpha    59.99999998118593
_cell_angle_beta     60.000000859313495
_cell_angle_gamma    60.00000344237884

_space_group_name_H-M_alt    "P 1"
_space_group_IT_number       1

loop_
  _space_group_symop_operation_xyz
  'x, y, z'

loop_
  _atom_site_type_symbol
  _atom_site_label
  _atom_site_symmetry_multiplicity
  _atom_site_fract_x
  _atom_site_fract_y
  _atom_site_fract_z
  _atom_site_occupancy
  Hg  Hg1       1.0  0.24999993020136793  0.25000004724469294  0.2500000944692123  1.0000
  Hg  Hg2       1.0  0.7499999353745184  0.7500000991227489  0.7499999661692233  1.0000
  Fe  Fe1       1.0  0.9999999600275368  5.965586556998682e-08  0.9999994891533648  1.0000
  F   F1        1.0  0.23955249659798464  0.2395523629538364  0.7604475002880299  1.0000
  F   F2        1.0  0.7604475985218088  0.7604476491879089  0.23955231437684738  1.0000
  F   F3        1.0  0.7604473626869872  0.2395524697065208  0.2395525095883034  1.0000
  F   F4        1.0  0.23955227340770666  0.7604477022277126  0.7604477138933485  1.0000
  F   F5        1.0  0.23955243500842016  0.7604476043276928  0.23955249538668302  1.0000
  F   F6        1.0  0.7604480109339122  0.23955198809241846  0.7604479208374932  1.0000
