data_image0
_chemical_formula_structural       Hg2FeBr6
_chemical_formula_sum              "Hg2 Fe1 Br6"
_cell_length_a       7.74231325801255
_cell_length_b       7.742313153778914
_cell_length_c       7.742313173199221
_cell_angle_alpha    59.9999998430423
_cell_angle_beta     59.99999927272476
_cell_angle_gamma    60.000001021641474

_space_group_name_H-M_alt    "P 1"
_space_group_IT_number       1

loop_
  _space_group_symop_operation_xyz
  'x, y, z'

loop_
  _atom_site_type_symbol
  _atom_site_label
  _atom_site_symmetry_multiplicity
  _atom_site_fract_x
  _atom_site_fract_y
  _atom_site_fract_z
  _atom_site_occupancy
  Hg  Hg1       1.0  0.2500000029620013  0.2499999473234418  0.24999993010247684  1.0000
  Hg  Hg2       1.0  0.7500000086429742  0.749999959029813  0.7500000483420973  1.0000
  Fe  Fe1       1.0  1.4446286251015823e-08  5.06203184484011e-08  0.9999998822208562  1.0000
  Br  Br1       1.0  0.2051901748271951  0.2051901984735462  0.7948098627960929  1.0000
  Br  Br2       1.0  0.7948099296796983  0.7948098676500911  0.20519021792617737  1.0000
  Br  Br3       1.0  0.7948099619863495  0.2051900030955943  0.20519008744171346  1.0000
  Br  Br4       1.0  0.20519011123452627  0.7948098526373433  0.794809986250154  1.0000
  Br  Br5       1.0  0.20518992033842354  0.7948100152201182  0.20519008218880236  1.0000
  Br  Br6       1.0  0.7948098750525587  0.20519012367022102  0.7948098868026243  1.0000
