data_image0
_chemical_formula_structural       Hg2FeCl6
_chemical_formula_sum              "Hg2 Fe1 Cl6"
_cell_length_a       7.010499745431553
_cell_length_b       7.0104999987304
_cell_length_c       7.010499780090435
_cell_angle_alpha    60.00000319215402
_cell_angle_beta     60.00000205221185
_cell_angle_gamma    59.99999877948865

_space_group_name_H-M_alt    "P 1"
_space_group_IT_number       1

loop_
  _space_group_symop_operation_xyz
  'x, y, z'

loop_
  _atom_site_type_symbol
  _atom_site_label
  _atom_site_symmetry_multiplicity
  _atom_site_fract_x
  _atom_site_fract_y
  _atom_site_fract_z
  _atom_site_occupancy
  Hg  Hg1       1.0  0.2500000052250355  0.2499999897052386  0.250000023634642  1.0000
  Hg  Hg2       1.0  0.7499999906688398  0.7499999848388492  0.7499999371816056  1.0000
  Fe  Fe1       1.0  0.9999999127378995  0.9999999406014927  0.9999999349664144  1.0000
  Cl  Cl1       1.0  0.22473225251678058  0.22473226624858275  0.7752678407551405  1.0000
  Cl  Cl2       1.0  0.7752677733246686  0.7752676925723734  0.22473237113304667  1.0000
  Cl  Cl3       1.0  0.7752678807869708  0.2247321719823218  0.22473232453356326  1.0000
  Cl  Cl4       1.0  0.22473233944675  0.7752677274401145  0.7752676558180904  1.0000
  Cl  Cl5       1.0  0.22473193716905315  0.7752678251339948  0.22473244671380305  1.0000
  Cl  Cl6       1.0  0.7752678797187111  0.22473240971533004  0.7752674349392233  1.0000
