data_image0
_chemical_formula_structural       Hg2GeI6
_chemical_formula_sum              "Hg2 Ge1 I6"
_cell_length_a       7.923306797221122
_cell_length_b       7.923306737528507
_cell_length_c       7.923306817299948
_cell_angle_alpha    60.00000003326332
_cell_angle_beta     59.99999983374264
_cell_angle_gamma    60.00000015598348

_space_group_name_H-M_alt    "P 1"
_space_group_IT_number       1

loop_
  _space_group_symop_operation_xyz
  'x, y, z'

loop_
  _atom_site_type_symbol
  _atom_site_label
  _atom_site_symmetry_multiplicity
  _atom_site_fract_x
  _atom_site_fract_y
  _atom_site_fract_z
  _atom_site_occupancy
  Hg  Hg1       1.0  0.24999999552812593  0.2499999958838086  0.25000000626287583  1.0000
  Hg  Hg2       1.0  0.749999998831637  0.7500000077461716  0.750000002617625  1.0000
  Ge  Ge1       1.0  6.698248482791069e-09  0.9999999799052544  0.9999999991256527  1.0000
  I   I1        1.0  0.25916573588304187  0.2591657588074021  0.7408342459789773  1.0000
  I   I2        1.0  0.7408342735502712  0.7408342695545725  0.2591657240672618  1.0000
  I   I3        1.0  0.7408342457109175  0.25916574850466967  0.2591657477923748  1.0000
  I   I4        1.0  0.2591657345022253  0.7408342582168096  0.7408342577809914  1.0000
  I   I5        1.0  0.2591657460856664  0.7408342421548786  0.2591657524133922  1.0000
  I   I6        1.0  0.7408342652621754  0.25916573674310694  0.7408342565527685  1.0000
