data_image0
_chemical_formula_structural       Hg2GeF6
_chemical_formula_sum              "Hg2 Ge1 F6"
_cell_length_a       6.29010196156521
_cell_length_b       6.290100987783691
_cell_length_c       6.290101334257929
_cell_angle_alpha    59.99999628564197
_cell_angle_beta     59.99998468400349
_cell_angle_gamma    59.999993873922314

_space_group_name_H-M_alt    "P 1"
_space_group_IT_number       1

loop_
  _space_group_symop_operation_xyz
  'x, y, z'

loop_
  _atom_site_type_symbol
  _atom_site_label
  _atom_site_symmetry_multiplicity
  _atom_site_fract_x
  _atom_site_fract_y
  _atom_site_fract_z
  _atom_site_occupancy
  Hg  Hg1       1.0  0.24999950584587669  0.2499996048024288  0.2500004461314783  1.0000
  Hg  Hg2       1.0  0.7500000111792164  0.7500001325932789  0.7499993490239975  1.0000
  Ge  Ge1       1.0  0.9999999982374376  6.036005976218475e-08  0.9999997974131044  1.0000
  F   F1        1.0  0.2074308188455497  0.20743097887671008  0.7925695627412482  1.0000
  F   F2        1.0  0.7925692324626783  0.7925693640668632  0.20743127773494263  1.0000
  F   F3        1.0  0.7925690569897815  0.2074310013271581  0.20743108419321585  1.0000
  F   F4        1.0  0.20743113319259557  0.7925689580378705  0.792568904088061  1.0000
  F   F5        1.0  0.20743062122694764  0.7925692701725365  0.2074308187164559  1.0000
  F   F6        1.0  0.792569568052138  0.20743038349792692  0.7925687918707186  1.0000
