data_image0
_chemical_formula_structural       Hg2GeI6
_chemical_formula_sum              "Hg2 Ge1 I6"
_cell_length_a       7.914766665858984
_cell_length_b       7.914766684025797
_cell_length_c       7.914766454494582
_cell_angle_alpha    60.00000107015936
_cell_angle_beta     60.00000115009107
_cell_angle_gamma    59.99999540380793

_space_group_name_H-M_alt    "P 1"
_space_group_IT_number       1

loop_
  _space_group_symop_operation_xyz
  'x, y, z'

loop_
  _atom_site_type_symbol
  _atom_site_label
  _atom_site_symmetry_multiplicity
  _atom_site_fract_x
  _atom_site_fract_y
  _atom_site_fract_z
  _atom_site_occupancy
  Hg  Hg1       1.0  0.24999995894262828  0.25000003459062287  0.2500000232463785  1.0000
  Hg  Hg2       1.0  0.750000024843776  0.7499999923577964  0.7499999718401732  1.0000
  Ge  Ge1       1.0  2.3519705279150967e-08  0.9999999907154933  1.6888162771571047e-08  1.0000
  I   I1        1.0  0.259515984062867  0.25951591855954975  0.7404840678132794  1.0000
  I   I2        1.0  0.7404840150359038  0.7404840449447493  0.2595159538660715  1.0000
  I   I3        1.0  0.740484054560523  0.25951591712354327  0.25951594025574776  1.0000
  I   I4        1.0  0.25951601497849375  0.740484075781685  0.7404840049703313  1.0000
  I   I5        1.0  0.2595158544381201  0.7404840895888435  0.25951597626006057  1.0000
  I   I6        1.0  0.7404840830901755  0.2595159404544135  0.7404840441985102  1.0000
