data_image0
_chemical_formula_structural       Hg2GeBr6
_chemical_formula_sum              "Hg2 Ge1 Br6"
_cell_length_a       7.675696163776788
_cell_length_b       7.675695905465509
_cell_length_c       7.675695480901918
_cell_angle_alpha    59.99999993068309
_cell_angle_beta     60.000002191494964
_cell_angle_gamma    59.999996012582535

_space_group_name_H-M_alt    "P 1"
_space_group_IT_number       1

loop_
  _space_group_symop_operation_xyz
  'x, y, z'

loop_
  _atom_site_type_symbol
  _atom_site_label
  _atom_site_symmetry_multiplicity
  _atom_site_fract_x
  _atom_site_fract_y
  _atom_site_fract_z
  _atom_site_occupancy
  Hg  Hg1       1.0  0.2500000180633362  0.2500000675396379  0.25000001727261556  1.0000
  Hg  Hg2       1.0  0.7499999470964642  0.7499999281732889  0.750000018503507  1.0000
  Ge  Ge1       1.0  0.9999997935220913  4.6272831369041226e-08  0.9999994234845151  1.0000
  Br  Br1       1.0  0.2246816593499872  0.2246817283701843  0.7753181920854099  1.0000
  Br  Br2       1.0  0.7753184635693767  0.7753183040418657  0.2246814950183545  1.0000
  Br  Br3       1.0  0.7753180995196404  0.2246819429959578  0.22468178969872915  1.0000
  Br  Br4       1.0  0.22468138385639977  0.7753185728871944  0.7753186164254041  1.0000
  Br  Br5       1.0  0.22468197407033325  0.7753180693899498  0.2246817779367583  1.0000
  Br  Br6       1.0  0.7753186779536901  0.22468132796763396  0.7753186409077699  1.0000
