data_image0
_chemical_formula_structural       Hg2GeBr6
_chemical_formula_sum              "Hg2 Ge1 Br6"
_cell_length_a       7.703014421511589
_cell_length_b       7.7030137572091295
_cell_length_c       7.703014456659997
_cell_angle_alpha    60.00000334500374
_cell_angle_beta     60.000002445047706
_cell_angle_gamma    60.00000253857329

_space_group_name_H-M_alt    "P 1"
_space_group_IT_number       1

loop_
  _space_group_symop_operation_xyz
  'x, y, z'

loop_
  _atom_site_type_symbol
  _atom_site_label
  _atom_site_symmetry_multiplicity
  _atom_site_fract_x
  _atom_site_fract_y
  _atom_site_fract_z
  _atom_site_occupancy
  Hg  Hg1       1.0  0.24999998583078328  0.25000010511959414  0.24999995865957855  1.0000
  Hg  Hg2       1.0  0.7500000769676644  0.7499998669913663  0.7500001144217724  1.0000
  Ge  Ge1       1.0  3.329545240920661e-08  6.200826331125922e-08  0.9999999835047795  1.0000
  Br  Br1       1.0  0.22379896117030085  0.2237991731294439  0.7762008614335154  1.0000
  Br  Br2       1.0  0.7762010889085034  0.7762008371404346  0.22379901328659071  1.0000
  Br  Br3       1.0  0.7762010940711712  0.22379898491950126  0.22379892017024758  1.0000
  Br  Br4       1.0  0.2237989377024232  0.7762009633421219  0.7762010855801027  1.0000
  Br  Br5       1.0  0.22379882390541292  0.7762010005522278  0.2237990773836883  1.0000
  Br  Br6       1.0  0.7762009987607675  0.22379901289756124  0.7762009873443543  1.0000
