data_image0
_chemical_formula_structural       Hg2GeCl6
_chemical_formula_sum              "Hg2 Ge1 Cl6"
_cell_length_a       7.4311413385234895
_cell_length_b       7.431141798944728
_cell_length_c       7.431141305421902
_cell_angle_alpha    60.00000341533471
_cell_angle_beta     60.00000181755686
_cell_angle_gamma    59.99999937103217

_space_group_name_H-M_alt    "P 1"
_space_group_IT_number       1

loop_
  _space_group_symop_operation_xyz
  'x, y, z'

loop_
  _atom_site_type_symbol
  _atom_site_label
  _atom_site_symmetry_multiplicity
  _atom_site_fract_x
  _atom_site_fract_y
  _atom_site_fract_z
  _atom_site_occupancy
  Hg  Hg1       1.0  0.24999998529185002  0.25000004382987734  0.25000000129752126  1.0000
  Hg  Hg2       1.0  0.7500000176721469  0.7499999600846603  0.7499999981407766  1.0000
  Ge  Ge1       1.0  1.7641914930233396e-08  0.9999999983518761  1.9520203981796303e-07  1.0000
  Cl  Cl1       1.0  0.21648377515438424  0.21648406197354916  0.783516131185823  1.0000
  Cl  Cl2       1.0  0.7835161641791533  0.7835159650147381  0.21648405405049137  1.0000
  Cl  Cl3       1.0  0.7835161034838126  0.21648392751620404  0.21648399946853633  1.0000
  Cl  Cl4       1.0  0.2164841543171476  0.7835159132339765  0.7835158007249924  1.0000
  Cl  Cl5       1.0  0.2164838434380747  0.7835159501838052  0.2164841189129165  1.0000
  Cl  Cl6       1.0  0.7835159406487558  0.21648415097009735  0.7835157435280982  1.0000
