data_image0
_chemical_formula_structural       Hg2HfF6
_chemical_formula_sum              "Hg2 Hf1 F6"
_cell_length_a       6.70598146519495
_cell_length_b       6.705980376151678
_cell_length_c       6.705981025208822
_cell_angle_alpha    60.00000244452853
_cell_angle_beta     60.00000192881559
_cell_angle_gamma    59.99999444392532

_space_group_name_H-M_alt    "P 1"
_space_group_IT_number       1

loop_
  _space_group_symop_operation_xyz
  'x, y, z'

loop_
  _atom_site_type_symbol
  _atom_site_label
  _atom_site_symmetry_multiplicity
  _atom_site_fract_x
  _atom_site_fract_y
  _atom_site_fract_z
  _atom_site_occupancy
  Hg  Hg1       1.0  0.25000017583006584  0.24999999872648748  0.24999994789528782  1.0000
  Hg  Hg2       1.0  0.7499998562639536  0.749999979742373  0.7500002247976837  1.0000
  Hf  Hf1       1.0  2.3288865712250475e-08  1.2784427301628974e-08  0.9999999461744069  1.0000
  F   F1        1.0  0.2127967509499081  0.21279672031646454  0.7872032454401983  1.0000
  F   F2        1.0  0.787203269245972  0.7872033403380068  0.2127966386039993  1.0000
  F   F3        1.0  0.7872032163811248  0.2127967642479179  0.21279672552554155  1.0000
  F   F4        1.0  0.21279668415346306  0.7872031904784232  0.7872033473648754  1.0000
  F   F5        1.0  0.21279671279850101  0.7872032792058635  0.21279667531067928  1.0000
  F   F6        1.0  0.7872032433231798  0.21279671022107013  0.7872033106821247  1.0000
