data_image0
_chemical_formula_structural       Hg2HfBr6
_chemical_formula_sum              "Hg2 Hf1 Br6"
_cell_length_a       8.017219360461667
_cell_length_b       8.017219450058665
_cell_length_c       8.017219363039322
_cell_angle_alpha    59.99999657795015
_cell_angle_beta     59.99999835288011
_cell_angle_gamma    59.9999976437087

_space_group_name_H-M_alt    "P 1"
_space_group_IT_number       1

loop_
  _space_group_symop_operation_xyz
  'x, y, z'

loop_
  _atom_site_type_symbol
  _atom_site_label
  _atom_site_symmetry_multiplicity
  _atom_site_fract_x
  _atom_site_fract_y
  _atom_site_fract_z
  _atom_site_occupancy
  Hg  Hg1       1.0  0.250000002274016  0.24999999900697267  0.2500000088911578  1.0000
  Hg  Hg2       1.0  0.7499999643701059  0.7500000077144207  0.7500000051332357  1.0000
  Hf  Hf1       1.0  0.9999999824545903  1.3748787339128308e-08  0.9999999956617347  1.0000
  Br  Br1       1.0  0.23185973191808765  0.23185972733407403  0.768140256759756  1.0000
  Br  Br2       1.0  0.7681403141309182  0.7681402442515293  0.2318597476032432  1.0000
  Br  Br3       1.0  0.7681403975997041  0.23185958408269242  0.231859793084246  1.0000
  Br  Br4       1.0  0.23185968604379545  0.7681402790402561  0.7681402941108159  1.0000
  Br  Br5       1.0  0.231859619296926  0.7681404193946126  0.23185971098432592  1.0000
  Br  Br6       1.0  0.7681402803206278  0.23185975383987115  0.7681401697266805  1.0000
