data_image0
_chemical_formula_structural       Hg2HfI6
_chemical_formula_sum              "Hg2 Hf1 I6"
_cell_length_a       8.801269958629856
_cell_length_b       8.801270266649302
_cell_length_c       8.801270100128496
_cell_angle_alpha    59.99999964414478
_cell_angle_beta     60.000002209462274
_cell_angle_gamma    60.00000310602526

_space_group_name_H-M_alt    "P 1"
_space_group_IT_number       1

loop_
  _space_group_symop_operation_xyz
  'x, y, z'

loop_
  _atom_site_type_symbol
  _atom_site_label
  _atom_site_symmetry_multiplicity
  _atom_site_fract_x
  _atom_site_fract_y
  _atom_site_fract_z
  _atom_site_occupancy
  Hg  Hg1       1.0  0.24999998755219857  0.24999990102900743  0.2500001567397335  1.0000
  Hg  Hg2       1.0  0.7500000120542403  0.7500000941138912  0.7499998432474676  1.0000
  Hf  Hf1       1.0  3.9718405066994746e-08  0.9999999123320594  0.9999999364873963  1.0000
  I   I1        1.0  0.22822295588304792  0.22822281909974426  0.7717771166650831  1.0000
  I   I2        1.0  0.771777049739807  0.7717771816093733  0.22822287866700042  1.0000
  I   I3        1.0  0.7717770384623733  0.22822311625840364  0.22822285670545145  1.0000
  I   I4        1.0  0.22822306794578404  0.7717767592107964  0.7717771906209301  1.0000
  I   I5        1.0  0.22822282799687849  0.7717771939231379  0.22822289417762107  1.0000
  I   I6        1.0  0.7717770438549422  0.22822298768808086  0.7717771116749141  1.0000
