data_image0
_chemical_formula_structural       Hg2HfCl6
_chemical_formula_sum              "Hg2 Hf1 Cl6"
_cell_length_a       7.750908772047147
_cell_length_b       7.750908679179038
_cell_length_c       7.750909178494819
_cell_angle_alpha    59.999999015923336
_cell_angle_beta     60.00000071353889
_cell_angle_gamma    60.000004041615014

_space_group_name_H-M_alt    "P 1"
_space_group_IT_number       1

loop_
  _space_group_symop_operation_xyz
  'x, y, z'

loop_
  _atom_site_type_symbol
  _atom_site_label
  _atom_site_symmetry_multiplicity
  _atom_site_fract_x
  _atom_site_fract_y
  _atom_site_fract_z
  _atom_site_occupancy
  Hg  Hg1       1.0  0.24999998325807987  0.25000003311300856  0.2500000180566643  1.0000
  Hg  Hg2       1.0  0.7500000189823606  0.7499999855696197  0.7500000712899507  1.0000
  Hf  Hf1       1.0  0.9999999990524504  0.9999999715576472  0.9999999282534787  1.0000
  Cl  Cl1       1.0  0.22429687777673332  0.22429675721590853  0.7757032520104471  1.0000
  Cl  Cl2       1.0  0.7757031137049071  0.7757032267038438  0.22429679816878634  1.0000
  Cl  Cl3       1.0  0.775703114771883  0.2242968466416062  0.22429686331877374  1.0000
  Cl  Cl4       1.0  0.22429691284101114  0.7757030914543579  0.7757031646131315  1.0000
  Cl  Cl5       1.0  0.22429688696873581  0.7757032221171528  0.22429673761370394  1.0000
  Cl  Cl6       1.0  0.7757031068288344  0.224296848709787  0.7757031544189039  1.0000
