data_image0
_chemical_formula_structural       Hg2IrBr6
_chemical_formula_sum              "Hg2 Ir1 Br6"
_cell_length_a       7.3285542257394445
_cell_length_b       7.3285542353048045
_cell_length_c       7.328554246203363
_cell_angle_alpha    59.99999985768483
_cell_angle_beta     59.999999835595645
_cell_angle_gamma    59.99999995580294

_space_group_name_H-M_alt    "P 1"
_space_group_IT_number       1

loop_
  _space_group_symop_operation_xyz
  'x, y, z'

loop_
  _atom_site_type_symbol
  _atom_site_label
  _atom_site_symmetry_multiplicity
  _atom_site_fract_x
  _atom_site_fract_y
  _atom_site_fract_z
  _atom_site_occupancy
  Hg  Hg1       1.0  0.24999999950590018  0.25000000347921003  0.2500000005012237  1.0000
  Hg  Hg2       1.0  0.7500000024171574  0.7499999987392597  0.7499999999450254  1.0000
  Ir  Ir1       1.0  0.9999999773050973  0.9999999782744552  4.2678108037178845e-08  1.0000
  Br  Br1       1.0  0.24022236350645582  0.24022236983335865  0.759777632183792  1.0000
  Br  Br2       1.0  0.7597776534245668  0.7597776440834815  0.24022235218023802  1.0000
  Br  Br3       1.0  0.7597776480508008  0.24022236020273316  0.24022235535704942  1.0000
  Br  Br4       1.0  0.2402223655542287  0.7597776353309535  0.7597776303098746  1.0000
  Br  Br5       1.0  0.2402223562463853  0.7597776407515836  0.24022236090203253  1.0000
  Br  Br6       1.0  0.7597776381644907  0.24022236982286488  0.7597776254770616  1.0000
