data_image0
_chemical_formula_structural       Hg2IrCl6
_chemical_formula_sum              "Hg2 Ir1 Cl6"
_cell_length_a       7.185289862840191
_cell_length_b       7.1852892029444035
_cell_length_c       7.185289624384099
_cell_angle_alpha    59.99999718632487
_cell_angle_beta     59.99999682381512
_cell_angle_gamma    60.00000400519188

_space_group_name_H-M_alt    "P 1"
_space_group_IT_number       1

loop_
  _space_group_symop_operation_xyz
  'x, y, z'

loop_
  _atom_site_type_symbol
  _atom_site_label
  _atom_site_symmetry_multiplicity
  _atom_site_fract_x
  _atom_site_fract_y
  _atom_site_fract_z
  _atom_site_occupancy
  Hg  Hg1       1.0  0.2500000796661153  0.24999998329266535  0.24999998075780744  1.0000
  Hg  Hg2       1.0  0.7499999621651166  0.750000028285762  0.7499999343227717  1.0000
  Ir  Ir1       1.0  0.9999999877453449  0.9999999403418982  9.997606723060762e-08  1.0000
  Cl  Cl1       1.0  0.22989754549021665  0.22989759096652454  0.7701024250015233  1.0000
  Cl  Cl2       1.0  0.7701024967949788  0.7701024529977294  0.229897519586328  1.0000
  Cl  Cl3       1.0  0.7701023260939519  0.2298976554197094  0.2298976632730014  1.0000
  Cl  Cl4       1.0  0.22989768690814735  0.7701023510451643  0.7701023230564834  1.0000
  Cl  Cl5       1.0  0.2298977414925308  0.7701022811933912  0.22989771084749175  1.0000
  Cl  Cl6       1.0  0.7701021874898341  0.22989769288564896  0.7701023002832036  1.0000
