data_image0
_chemical_formula_structural       Hg2InI6
_chemical_formula_sum              "Hg2 In1 I6"
_cell_length_a       8.131589894029506
_cell_length_b       8.13158975386998
_cell_length_c       8.13158996526806
_cell_angle_alpha    59.99999716114549
_cell_angle_beta     59.99999983735805
_cell_angle_gamma    59.999999950214466

_space_group_name_H-M_alt    "P 1"
_space_group_IT_number       1

loop_
  _space_group_symop_operation_xyz
  'x, y, z'

loop_
  _atom_site_type_symbol
  _atom_site_label
  _atom_site_symmetry_multiplicity
  _atom_site_fract_x
  _atom_site_fract_y
  _atom_site_fract_z
  _atom_site_occupancy
  Hg  Hg1       1.0  0.24999990932316232  0.2500000126215094  0.25000006594944746  1.0000
  Hg  Hg2       1.0  0.7500000513324925  0.7500000092475568  0.7499999926760514  1.0000
  In  In1       1.0  1.622316863663568e-08  0.9999999683707101  0.9999999093213173  1.0000
  I   I1        1.0  0.25300408020451154  0.25300422973589615  0.7469958900321889  1.0000
  I   I2        1.0  0.7469958625790976  0.7469957861085438  0.2530041227423717  1.0000
  I   I3        1.0  0.7469958588497253  0.25300422523371696  0.2530040532487063  1.0000
  I   I4        1.0  0.2530040759010481  0.7469958147092312  0.7469959527227894  1.0000
  I   I5        1.0  0.2530041978618785  0.7469958516329905  0.25300413154766055  1.0000
  I   I6        1.0  0.7469959440122473  0.25300409944671  0.7469958853907768  1.0000
