data_image0
_chemical_formula_structural       Hg2InBr6
_chemical_formula_sum              "Hg2 In1 Br6"
_cell_length_a       7.5296334352995435
_cell_length_b       7.52963332348534
_cell_length_c       7.5296335488011605
_cell_angle_alpha    59.99999995286784
_cell_angle_beta     59.999999753892354
_cell_angle_gamma    60.00000011812184

_space_group_name_H-M_alt    "P 1"
_space_group_IT_number       1

loop_
  _space_group_symop_operation_xyz
  'x, y, z'

loop_
  _atom_site_type_symbol
  _atom_site_label
  _atom_site_symmetry_multiplicity
  _atom_site_fract_x
  _atom_site_fract_y
  _atom_site_fract_z
  _atom_site_occupancy
  Hg  Hg1       1.0  0.24999999375348023  0.250000016595073  0.24999999649961574  1.0000
  Hg  Hg2       1.0  0.7499999927553911  0.7499999830959957  0.7500000091274681  1.0000
  In  In1       1.0  0.9999999675325143  0.9999999869874678  0.999999953679543  1.0000
  Br  Br1       1.0  0.25258176588642656  0.2525817581195753  0.7474182245008336  1.0000
  Br  Br2       1.0  0.7474182480401422  0.7474182513308918  0.25258174527258587  1.0000
  Br  Br3       1.0  0.7474181784379724  0.25258179715178014  0.2525817743273061  1.0000
  Br  Br4       1.0  0.25258172276394614  0.7474183066395393  0.7474182683861349  1.0000
  Br  Br5       1.0  0.25258181644092  0.7474182058559367  0.25258177613239463  1.0000
  Br  Br6       1.0  0.747418308955832  0.25258169461458146  0.7474182641125446  1.0000
