data_image0
_chemical_formula_structural       Hg2IrI6
_chemical_formula_sum              "Hg2 Ir1 I6"
_cell_length_a       7.668944626853378
_cell_length_b       7.668944969456721
_cell_length_c       7.668945218568392
_cell_angle_alpha    59.99999202839457
_cell_angle_beta     59.9999983973239
_cell_angle_gamma    60.000000315837944

_space_group_name_H-M_alt    "P 1"
_space_group_IT_number       1

loop_
  _space_group_symop_operation_xyz
  'x, y, z'

loop_
  _atom_site_type_symbol
  _atom_site_label
  _atom_site_symmetry_multiplicity
  _atom_site_fract_x
  _atom_site_fract_y
  _atom_site_fract_z
  _atom_site_occupancy
  Hg  Hg1       1.0  0.24999998143184524  0.2500000147125489  0.2500000142555532  1.0000
  Hg  Hg2       1.0  0.7499999629874148  0.7500000377495735  0.7500000196632736  1.0000
  Ir  Ir1       1.0  0.9999999493677528  1.0220919238455282e-07  1.0591151060662292e-07  1.0000
  I   I1        1.0  0.2471809015575175  0.24718086974375167  0.7528191751436992  1.0000
  I   I2        1.0  0.7528191148005628  0.7528191475839596  0.24718083776500457  1.0000
  I   I3        1.0  0.7528189880783414  0.24718096826664523  0.24718102642688017  1.0000
  I   I4        1.0  0.24718112625886487  0.7528188590158429  0.7528188643040061  1.0000
  I   I5        1.0  0.24718096070124235  0.7528190520813878  0.24718094996741827  1.0000
  I   I6        1.0  0.752819026440839  0.2471809444850838  0.7528190083883284  1.0000
