data_image0
_chemical_formula_structural       Hg2IrF6
_chemical_formula_sum              "Hg2 Ir1 F6"
_cell_length_a       6.6855419434662195
_cell_length_b       6.685541135949612
_cell_length_c       6.685542118533176
_cell_angle_alpha    60.000005709419355
_cell_angle_beta     60.00000559073774
_cell_angle_gamma    60.000001932432774

_space_group_name_H-M_alt    "P 1"
_space_group_IT_number       1

loop_
  _space_group_symop_operation_xyz
  'x, y, z'

loop_
  _atom_site_type_symbol
  _atom_site_label
  _atom_site_symmetry_multiplicity
  _atom_site_fract_x
  _atom_site_fract_y
  _atom_site_fract_z
  _atom_site_occupancy
  Hg  Hg1       1.0  0.24999995077269807  0.24999989449305074  0.2499999406279304  1.0000
  Hg  Hg2       1.0  0.7500001292682854  0.7500000443695998  0.7500005006387785  1.0000
  Ir  Ir1       1.0  0.9999999848566556  9.159647150645902e-09  0.999999935682423  1.0000
  F   F1        1.0  0.20355167449223507  0.20355169046566354  0.7964484905205431  1.0000
  F   F2        1.0  0.7964483349446894  0.7964482374053623  0.2035515697382697  1.0000
  F   F3        1.0  0.796448373528936  0.20355177305483566  0.20355148994165068  1.0000
  F   F4        1.0  0.20355168810592555  0.7964481951186444  0.79644829671069  1.0000
  F   F5        1.0  0.20355182705611216  0.7964485433902156  0.20355142785658223  1.0000
  F   F6        1.0  0.7964480645117124  0.2035515878251033  0.7964484146601378  1.0000
