data_image0
_chemical_formula_structural       Hg2InF6
_chemical_formula_sum              "Hg2 In1 F6"
_cell_length_a       5.916384295177556
_cell_length_b       5.916384659172266
_cell_length_c       5.916384379007546
_cell_angle_alpha    60.00000017405581
_cell_angle_beta     59.99999872372556
_cell_angle_gamma    59.99999987463985

_space_group_name_H-M_alt    "P 1"
_space_group_IT_number       1

loop_
  _space_group_symop_operation_xyz
  'x, y, z'

loop_
  _atom_site_type_symbol
  _atom_site_label
  _atom_site_symmetry_multiplicity
  _atom_site_fract_x
  _atom_site_fract_y
  _atom_site_fract_z
  _atom_site_occupancy
  Hg  Hg1       1.0  0.24999993848938332  0.24999995340888678  0.25000006519017015  1.0000
  Hg  Hg2       1.0  0.750000118275842  0.7499999471704368  0.7499999499881288  1.0000
  In  In1       1.0  0.9999999724394235  1.2420541038136864e-08  0.9999999433416012  1.0000
  F   F1        1.0  0.24929856181215848  0.24929856537243184  0.7507013749630208  1.0000
  F   F2        1.0  0.750701421535962  0.7507014325011222  0.24929859278206346  1.0000
  F   F3        1.0  0.7507015025400331  0.24929859590392736  0.24929845530078315  1.0000
  F   F4        1.0  0.24929842692829113  0.7507014640723259  0.7507015827025949  1.0000
  F   F5        1.0  0.24929854105404575  0.7507014559660793  0.24929855619340385  1.0000
  F   F6        1.0  0.7507015369024717  0.24929852741684222  0.7507014914985237  1.0000
