data_image0
_chemical_formula_structural       Hg2MnCl6
_chemical_formula_sum              "Hg2 Mn1 Cl6"
_cell_length_a       7.469537574150627
_cell_length_b       7.469537648708197
_cell_length_c       7.4695383059844875
_cell_angle_alpha    59.999996170672944
_cell_angle_beta     59.99999941535398
_cell_angle_gamma    59.999994679670095

_space_group_name_H-M_alt    "P 1"
_space_group_IT_number       1

loop_
  _space_group_symop_operation_xyz
  'x, y, z'

loop_
  _atom_site_type_symbol
  _atom_site_label
  _atom_site_symmetry_multiplicity
  _atom_site_fract_x
  _atom_site_fract_y
  _atom_site_fract_z
  _atom_site_occupancy
  Hg  Hg1       1.0  0.25000007929267254  0.2499998447180511  0.25000010781606924  1.0000
  Hg  Hg2       1.0  0.7499999791773581  0.749999994896643  0.750000083195118  1.0000
  Mn  Mn1       1.0  2.6228926356163977e-09  2.4594793262031022e-08  2.3876740182028627e-08  1.0000
  Cl  Cl1       1.0  0.21208642961628246  0.21208653780106274  0.7879134272392505  1.0000
  Cl  Cl2       1.0  0.7879134396105646  0.7879136330235416  0.21208628312469294  1.0000
  Cl  Cl3       1.0  0.7879135082875822  0.21208641443864124  0.2120865691916677  1.0000
  Cl  Cl4       1.0  0.21208647969345218  0.787913608817186  0.7879135210640107  1.0000
  Cl  Cl5       1.0  0.2120865638672034  0.7879135697636632  0.21208646156990602  1.0000
  Cl  Cl6       1.0  0.7879135186322125  0.212086387906043  0.7879135941380822  1.0000
