data_image0
_chemical_formula_structural       Hg2MnCl6
_chemical_formula_sum              "Hg2 Mn1 Cl6"
_cell_length_a       7.471829285011558
_cell_length_b       7.471829115698107
_cell_length_c       7.471830752343324
_cell_angle_alpha    59.99999060885766
_cell_angle_beta     59.999990837223
_cell_angle_gamma    59.99999127946072

_space_group_name_H-M_alt    "P 1"
_space_group_IT_number       1

loop_
  _space_group_symop_operation_xyz
  'x, y, z'

loop_
  _atom_site_type_symbol
  _atom_site_label
  _atom_site_symmetry_multiplicity
  _atom_site_fract_x
  _atom_site_fract_y
  _atom_site_fract_z
  _atom_site_occupancy
  Hg  Hg1       1.0  0.2500000249599654  0.24999998682271493  0.25000000694348967  1.0000
  Hg  Hg2       1.0  0.7499999848231401  0.7500000637346085  0.749999991473494  1.0000
  Mn  Mn1       1.0  0.999999990197269  0.999999973773598  0.9999999778637647  1.0000
  Cl  Cl1       1.0  0.2119406978920245  0.21194015764731755  0.7880595856232118  1.0000
  Cl  Cl2       1.0  0.7880593440688943  0.7880595831106223  0.2119405141304793  1.0000
  Cl  Cl3       1.0  0.788059700349557  0.21194038720056058  0.2119403590500352  1.0000
  Cl  Cl4       1.0  0.21194027849326977  0.7880597190878713  0.7880595132109266  1.0000
  Cl  Cl5       1.0  0.21194034790384866  0.7880596732018063  0.21194052034755553  1.0000
  Cl  Cl6       1.0  0.7880596470947314  0.21194047734367644  0.7880595572583768  1.0000
