data_image0
_chemical_formula_structural       Hg2MoF6
_chemical_formula_sum              "Hg2 Mo1 F6"
_cell_length_a       7.060245998643087
_cell_length_b       7.060245762854536
_cell_length_c       7.0602469432204025
_cell_angle_alpha    59.99999128111019
_cell_angle_beta     59.999999416409786
_cell_angle_gamma    59.99999024056309

_space_group_name_H-M_alt    "P 1"
_space_group_IT_number       1

loop_
  _space_group_symop_operation_xyz
  'x, y, z'

loop_
  _atom_site_type_symbol
  _atom_site_label
  _atom_site_symmetry_multiplicity
  _atom_site_fract_x
  _atom_site_fract_y
  _atom_site_fract_z
  _atom_site_occupancy
  Hg  Hg1       1.0  0.2500000271335446  0.2500000968248669  0.24999988520519512  1.0000
  Hg  Hg2       1.0  0.7500000291557882  0.7499997995527922  0.7500005843997314  1.0000
  Mo  Mo1       1.0  0.9999999513319603  0.9999999791835251  1.608001701198522e-07  1.0000
  F   F1        1.0  0.19326532897593957  0.19326545202450435  0.8067342049133538  1.0000
  F   F2        1.0  0.8067346417374326  0.8067345293538027  0.19326522252276943  1.0000
  F   F3        1.0  0.8067342932197155  0.19326571728578945  0.19326533402899945  1.0000
  F   F4        1.0  0.19326535161020536  0.8067346578707487  0.8067346996639507  1.0000
  F   F5        1.0  0.1932658115723887  0.806734423541221  0.19326515230341793  1.0000
  F   F6        1.0  0.8067345853480454  0.19326536354997043  0.8067347285579323  1.0000
