data_image0
_chemical_formula_structural       Hg2MnI6
_chemical_formula_sum              "Hg2 Mn1 I6"
_cell_length_a       7.987898358784739
_cell_length_b       7.9878987508703325
_cell_length_c       7.9878992596326155
_cell_angle_alpha    59.999995337108494
_cell_angle_beta     59.999999492350355
_cell_angle_gamma    60.00000389608171

_space_group_name_H-M_alt    "P 1"
_space_group_IT_number       1

loop_
  _space_group_symop_operation_xyz
  'x, y, z'

loop_
  _atom_site_type_symbol
  _atom_site_label
  _atom_site_symmetry_multiplicity
  _atom_site_fract_x
  _atom_site_fract_y
  _atom_site_fract_z
  _atom_site_occupancy
  Hg  Hg1       1.0  0.25000002020577466  0.24999991168388266  0.25000005787243174  1.0000
  Hg  Hg2       1.0  0.749999905440963  0.7500000141032175  0.749999994001683  1.0000
  Mn  Mn1       1.0  3.7340089149416606e-07  4.0631135049972267e-07  3.6503572402540664e-07  1.0000
  I   I1        1.0  0.22801789041509032  0.22801778902183292  0.7719822240715852  1.0000
  I   I2        1.0  0.7719816677583269  0.7719817733848997  0.22801814440552076  1.0000
  I   I3        1.0  0.7719817900638438  0.22801804572109013  0.22801824883706018  1.0000
  I   I4        1.0  0.22801867374557658  0.7719816056142297  0.7719814470926661  1.0000
  I   I5        1.0  0.22801811463093863  0.771981885586608  0.22801795132370792  1.0000
  I   I6        1.0  0.7719815505863358  0.2280185829711375  0.7719815500105899  1.0000
