data_image0
_chemical_formula_structural       Hg2MnBr6
_chemical_formula_sum              "Hg2 Mn1 Br6"
_cell_length_a       8.26546163452943
_cell_length_b       8.26545822589514
_cell_length_c       8.26545956840401
_cell_angle_alpha    60.00000001363163
_cell_angle_beta     60.00002493983181
_cell_angle_gamma    59.999997932019674

_space_group_name_H-M_alt    "P 1"
_space_group_IT_number       1

loop_
  _space_group_symop_operation_xyz
  'x, y, z'

loop_
  _atom_site_type_symbol
  _atom_site_label
  _atom_site_symmetry_multiplicity
  _atom_site_fract_x
  _atom_site_fract_y
  _atom_site_fract_z
  _atom_site_occupancy
  Hg  Hg1       1.0  0.25000000623926316  0.24999970148424458  0.2500001727863547  1.0000
  Hg  Hg2       1.0  0.7499999600372955  0.7500002528190141  0.7499998343829909  1.0000
  Mn  Mn1       1.0  2.9665931670340694e-07  1.452127701851281e-07  0.999999856494661  1.0000
  Br  Br1       1.0  0.19798372907133271  0.197983827162654  0.8020161353042442  1.0000
  Br  Br2       1.0  0.8020171748563217  0.8020162604992755  0.197983384754505  1.0000
  Br  Br3       1.0  0.8020167455183017  0.1979833102021455  0.1979832946718943  1.0000
  Br  Br4       1.0  0.19798262387526408  0.8020168337667664  0.8020165712976401  1.0000
  Br  Br5       1.0  0.1979827626191431  0.8020165741431518  0.19798411440659006  1.0000
  Br  Br6       1.0  0.8020167257418331  0.19798304528167768  0.8020166947819724  1.0000
