data_image0
_chemical_formula_structural       Hg2MnF6
_chemical_formula_sum              "Hg2 Mn1 F6"
_cell_length_a       5.902483406687095
_cell_length_b       5.902483203416325
_cell_length_c       5.902483133709916
_cell_angle_alpha    60.000003998699626
_cell_angle_beta     60.00000428244926
_cell_angle_gamma    60.00000492229405

_space_group_name_H-M_alt    "P 1"
_space_group_IT_number       1

loop_
  _space_group_symop_operation_xyz
  'x, y, z'

loop_
  _atom_site_type_symbol
  _atom_site_label
  _atom_site_symmetry_multiplicity
  _atom_site_fract_x
  _atom_site_fract_y
  _atom_site_fract_z
  _atom_site_occupancy
  Hg  Hg1       1.0  0.2500000004214572  0.25000003469866416  0.24999998651935745  1.0000
  Hg  Hg2       1.0  0.7500000934272657  0.7500001269206196  0.750000071484536  1.0000
  Mn  Mn1       1.0  3.23483991016489e-08  0.9999999792503481  1.622525527721462e-08  1.0000
  F   F1        1.0  0.2244150828329183  0.22441515156417102  0.7755847523418568  1.0000
  F   F2        1.0  0.7755850895864148  0.7755848565076648  0.22441488232745027  1.0000
  F   F3        1.0  0.7755848223596942  0.22441511902196015  0.2244150279613441  1.0000
  F   F4        1.0  0.22441483835764164  0.775585015622754  0.7755850567912518  1.0000
  F   F5        1.0  0.2244150467548841  0.7755847788655834  0.2244151503965815  1.0000
  F   F6        1.0  0.7755849441087828  0.22441496983558837  0.7755850622125473  1.0000
