data_image0
_chemical_formula_structural       Hg2MgI6
_chemical_formula_sum              "Hg2 Mg1 I6"
_cell_length_a       8.000381868130635
_cell_length_b       8.000381851998139
_cell_length_c       8.00038161304048
_cell_angle_alpha    60.00000025207669
_cell_angle_beta     59.99999790853609
_cell_angle_gamma    59.999999030242066

_space_group_name_H-M_alt    "P 1"
_space_group_IT_number       1

loop_
  _space_group_symop_operation_xyz
  'x, y, z'

loop_
  _atom_site_type_symbol
  _atom_site_label
  _atom_site_symmetry_multiplicity
  _atom_site_fract_x
  _atom_site_fract_y
  _atom_site_fract_z
  _atom_site_occupancy
  Hg  Hg1       1.0  0.25000001878561695  0.24999998425435366  0.24999998533040563  1.0000
  Hg  Hg2       1.0  0.7499999599454115  0.7500000384911107  0.7500000338294556  1.0000
  Mg  Mg1       1.0  1.758233481801725e-08  0.9999999862222778  1.8096739366545973e-08  1.0000
  I   I1        1.0  0.2577917734299371  0.2577916996333103  0.742208305522488  1.0000
  I   I2        1.0  0.7422082347800867  0.7422082909641355  0.2577917062223015  1.0000
  I   I3        1.0  0.7422082845171963  0.25779175455779857  0.257791678480713  1.0000
  I   I4        1.0  0.25779178527477853  0.742208185521332  0.7422082889841058  1.0000
  I   I5        1.0  0.2577917244443852  0.7422083491363987  0.25779171879934387  1.0000
  I   I6        1.0  0.7422082009418013  0.2577917210656646  0.7422082533070248  1.0000
