data_image0
_chemical_formula_structural       Hg2MnBr6
_chemical_formula_sum              "Hg2 Mn1 Br6"
_cell_length_a       8.263501758158744
_cell_length_b       8.263499973180494
_cell_length_c       8.263502363531748
_cell_angle_alpha    59.99999185675998
_cell_angle_beta     59.99999778398029
_cell_angle_gamma    59.99999624707223

_space_group_name_H-M_alt    "P 1"
_space_group_IT_number       1

loop_
  _space_group_symop_operation_xyz
  'x, y, z'

loop_
  _atom_site_type_symbol
  _atom_site_label
  _atom_site_symmetry_multiplicity
  _atom_site_fract_x
  _atom_site_fract_y
  _atom_site_fract_z
  _atom_site_occupancy
  Hg  Hg1       1.0  0.2499998588825084  0.2500000524805244  0.25000008591457346  1.0000
  Hg  Hg2       1.0  0.7500000934152947  0.7500000240513255  0.7499999087366764  1.0000
  Mn  Mn1       1.0  6.550890599526865e-09  0.9999999006983558  1.214040951234341e-07  1.0000
  Br  Br1       1.0  0.19801623978609154  0.19801640499850845  0.8019837147181352  1.0000
  Br  Br2       1.0  0.8019836091805227  0.8019835455536377  0.19801645993615363  1.0000
  Br  Br3       1.0  0.8019835245399359  0.19801649622217046  0.1980163178371823  1.0000
  Br  Br4       1.0  0.19801619387476216  0.8019837789129557  0.8019834463751534  1.0000
  Br  Br5       1.0  0.19801663235044833  0.8019834657920754  0.19801638635947366  1.0000
  Br  Br6       1.0  0.8019838456950741  0.19801629949583685  0.8019835542860707  1.0000
