data_image0
_chemical_formula_structural       Hg2MnF6
_chemical_formula_sum              "Hg2 Mn1 F6"
_cell_length_a       5.891693202199263
_cell_length_b       5.891692680316275
_cell_length_c       5.891693084844125
_cell_angle_alpha    60.00000094137838
_cell_angle_beta     60.000003173784876
_cell_angle_gamma    60.000002907008835

_space_group_name_H-M_alt    "P 1"
_space_group_IT_number       1

loop_
  _space_group_symop_operation_xyz
  'x, y, z'

loop_
  _atom_site_type_symbol
  _atom_site_label
  _atom_site_symmetry_multiplicity
  _atom_site_fract_x
  _atom_site_fract_y
  _atom_site_fract_z
  _atom_site_occupancy
  Hg  Hg1       1.0  0.24999997804179383  0.25000015140567744  0.25000005940605635  1.0000
  Hg  Hg2       1.0  0.7499999406472434  0.7499999407618999  0.7500001838782652  1.0000
  Mn  Mn1       1.0  5.175176104020758e-08  0.9999998212261526  6.860295475468842e-08  1.0000
  F   F1        1.0  0.22485466798321585  0.22485458466448657  0.775145404651933  1.0000
  F   F2        1.0  0.7751453720621224  0.7751453786196132  0.2248544995403703  1.0000
  F   F3        1.0  0.7751451083998038  0.22485486853620906  0.22485495517299198  1.0000
  F   F4        1.0  0.2248546014889902  0.7751454502168146  0.7751450551744725  1.0000
  F   F5        1.0  0.22485479951838477  0.7751452670249633  0.22485473675152823  1.0000
  F   F6        1.0  0.7751454884839727  0.22485454035171698  0.7751450416426422  1.0000
