data_image0
_chemical_formula_structural       Hg2MoBr6
_chemical_formula_sum              "Hg2 Mo1 Br6"
_cell_length_a       7.761186747147918
_cell_length_b       7.761186724491933
_cell_length_c       7.761186766105303
_cell_angle_alpha    59.999999317400395
_cell_angle_beta     59.99999636962075
_cell_angle_gamma    60.00000078401166

_space_group_name_H-M_alt    "P 1"
_space_group_IT_number       1

loop_
  _space_group_symop_operation_xyz
  'x, y, z'

loop_
  _atom_site_type_symbol
  _atom_site_label
  _atom_site_symmetry_multiplicity
  _atom_site_fract_x
  _atom_site_fract_y
  _atom_site_fract_z
  _atom_site_occupancy
  Hg  Hg1       1.0  0.24999997119076145  0.2500000386804912  0.250000006336932  1.0000
  Hg  Hg2       1.0  0.7500000050210753  0.7499999755960804  0.7499999919705854  1.0000
  Mo  Mo1       1.0  0.9999995928409618  5.2075247945816395e-08  0.9999998502723688  1.0000
  Br  Br1       1.0  0.229095411000561  0.2290954741696266  0.7709044838962053  1.0000
  Br  Br2       1.0  0.7709048429738629  0.7709047200032979  0.22909517606250066  1.0000
  Br  Br3       1.0  0.7709044734262176  0.2290955477118073  0.229095437490577  1.0000
  Br  Br4       1.0  0.22909531795165244  0.7709046149003471  0.7709047207970388  1.0000
  Br  Br5       1.0  0.22909569651563744  0.7709042604118166  0.22909563410019815  1.0000
  Br  Br6       1.0  0.7709047004621056  0.22909532621642964  0.7709046923411308  1.0000
