data_image0
_chemical_formula_structural       Hg2MgCl6
_chemical_formula_sum              "Hg2 Mg1 Cl6"
_cell_length_a       6.84991331541107
_cell_length_b       6.849913543603454
_cell_length_c       6.849913708514154
_cell_angle_alpha    60.00000012786725
_cell_angle_beta     59.99999590356911
_cell_angle_gamma    59.99999967614807

_space_group_name_H-M_alt    "P 1"
_space_group_IT_number       1

loop_
  _space_group_symop_operation_xyz
  'x, y, z'

loop_
  _atom_site_type_symbol
  _atom_site_label
  _atom_site_symmetry_multiplicity
  _atom_site_fract_x
  _atom_site_fract_y
  _atom_site_fract_z
  _atom_site_occupancy
  Hg  Hg1       1.0  0.24999995647149872  0.2499999656275423  0.2500000651197786  1.0000
  Hg  Hg2       1.0  0.7500000945670584  0.7499999648255327  0.7499999641389988  1.0000
  Mg  Mg1       1.0  8.835546131688819e-08  0.9999999928481127  0.9999998542873983  1.0000
  Cl  Cl1       1.0  0.2508780324596763  0.2508779940665627  0.7491219801590546  1.0000
  Cl  Cl2       1.0  0.7491219609432479  0.7491218058646079  0.2508780307683163  1.0000
  Cl  Cl3       1.0  0.7491219471852536  0.250878120250875  0.2508779503897948  1.0000
  Cl  Cl4       1.0  0.2508778995338483  0.7491222411032756  0.749121965578179  1.0000
  Cl  Cl5       1.0  0.2508780543748668  0.7491219260014321  0.2508780626117082  1.0000
  Cl  Cl6       1.0  0.7491219667298281  0.2508779829959902  0.7491221266500884  1.0000
