data_image0
_chemical_formula_structural       Hg2MgBr6
_chemical_formula_sum              "Hg2 Mg1 Br6"
_cell_length_a       7.340474171345465
_cell_length_b       7.340474254111468
_cell_length_c       7.340474235242621
_cell_angle_alpha    60.00000058734559
_cell_angle_beta     59.99999972756694
_cell_angle_gamma    60.00000179224616

_space_group_name_H-M_alt    "P 1"
_space_group_IT_number       1

loop_
  _space_group_symop_operation_xyz
  'x, y, z'

loop_
  _atom_site_type_symbol
  _atom_site_label
  _atom_site_symmetry_multiplicity
  _atom_site_fract_x
  _atom_site_fract_y
  _atom_site_fract_z
  _atom_site_occupancy
  Hg  Hg1       1.0  0.25000002151998585  0.24999999615260235  0.24999999246613575  1.0000
  Hg  Hg2       1.0  0.7499999939467362  0.7500000068111071  0.7500000048906778  1.0000
  Mg  Mg1       1.0  3.5463309455903884e-08  1.201306992754415e-07  5.979628606901922e-08  1.0000
  Br  Br1       1.0  0.25392527680931115  0.2539251961733121  0.7460747678751504  1.0000
  Br  Br2       1.0  0.7460747655439642  0.7460747166923742  0.2539252787974252  1.0000
  Br  Br3       1.0  0.7460747940876017  0.25392518400679964  0.2539252357220538  1.0000
  Br  Br4       1.0  0.2539252650295431  0.746074702163176  0.7460747627863601  1.0000
  Br  Br5       1.0  0.2539251955174227  0.746074759454913  0.25392515236968544  1.0000
  Br  Br6       1.0  0.7460746617681437  0.2539253169219973  0.7460747293431689  1.0000
