data_image0
_chemical_formula_structural       Hg2NbI6
_chemical_formula_sum              "Hg2 Nb1 I6"
_cell_length_a       8.667844997331056
_cell_length_b       8.667845327643262
_cell_length_c       8.667844898136172
_cell_angle_alpha    60.0000009576643
_cell_angle_beta     59.99999989761974
_cell_angle_gamma    60.00000107030816

_space_group_name_H-M_alt    "P 1"
_space_group_IT_number       1

loop_
  _space_group_symop_operation_xyz
  'x, y, z'

loop_
  _atom_site_type_symbol
  _atom_site_label
  _atom_site_symmetry_multiplicity
  _atom_site_fract_x
  _atom_site_fract_y
  _atom_site_fract_z
  _atom_site_occupancy
  Hg  Hg1       1.0  0.24999990520817628  0.24999997773572044  0.24999990761336693  1.0000
  Hg  Hg2       1.0  0.7500001130254266  0.7500000278764809  0.750000070954985  1.0000
  Nb  Nb1       1.0  0.9999999990972334  7.064874906324159e-08  0.9999998993667177  1.0000
  I   I1        1.0  0.22662238823532124  0.22662240558518568  0.7733775286314446  1.0000
  I   I2        1.0  0.7733775504355489  0.7733773711250704  0.2266225361015783  1.0000
  I   I3        1.0  0.7733776168405542  0.22662250173482396  0.22662233988235622  1.0000
  I   I4        1.0  0.22662230737019962  0.7733777539739471  0.7733776575590364  1.0000
  I   I5        1.0  0.22662234799627634  0.7733775721045754  0.22662235753266394  1.0000
  I   I6        1.0  0.7733777733682591  0.22662228797120335  0.7733776906933845  1.0000
