data_image0
_chemical_formula_structural       Hg2NiI6
_chemical_formula_sum              "Hg2 Ni1 I6"
_cell_length_a       7.565150235358858
_cell_length_b       7.565150531759926
_cell_length_c       7.565150202758461
_cell_angle_alpha    59.999999807827855
_cell_angle_beta     60.00000089695872
_cell_angle_gamma    59.99999832810681

_space_group_name_H-M_alt    "P 1"
_space_group_IT_number       1

loop_
  _space_group_symop_operation_xyz
  'x, y, z'

loop_
  _atom_site_type_symbol
  _atom_site_label
  _atom_site_symmetry_multiplicity
  _atom_site_fract_x
  _atom_site_fract_y
  _atom_site_fract_z
  _atom_site_occupancy
  Hg  Hg1       1.0  0.24999997668896393  0.24999997540863786  0.2500000247567991  1.0000
  Hg  Hg2       1.0  0.7499999621332287  0.7500000589781687  0.7500000156544147  1.0000
  Ni  Ni1       1.0  0.9999999403483066  5.99004112378691e-08  0.9999999377486514  1.0000
  I   I1        1.0  0.25125054745512143  0.25125053467113967  0.7487494357585585  1.0000
  I   I2        1.0  0.7487495020043894  0.7487494608613459  0.2512505211745282  1.0000
  I   I3        1.0  0.7487494205438123  0.2512505476399277  0.2512505432006408  1.0000
  I   I4        1.0  0.2512505453054781  0.7487494835090186  0.7487494668100428  1.0000
  I   I5        1.0  0.25125058157180125  0.7487494228915562  0.25125055046101263  1.0000
  I   I6        1.0  0.7487495118607015  0.25125045445904  0.7487495176001703  1.0000
