data_image0
_chemical_formula_structural       Hg2NiBr6
_chemical_formula_sum              "Hg2 Ni1 Br6"
_cell_length_a       7.117616896390941
_cell_length_b       7.117616675762449
_cell_length_c       7.117616572393922
_cell_angle_alpha    60.00000082289699
_cell_angle_beta     60.00000011179582
_cell_angle_gamma    60.00000157969755

_space_group_name_H-M_alt    "P 1"
_space_group_IT_number       1

loop_
  _space_group_symop_operation_xyz
  'x, y, z'

loop_
  _atom_site_type_symbol
  _atom_site_label
  _atom_site_symmetry_multiplicity
  _atom_site_fract_x
  _atom_site_fract_y
  _atom_site_fract_z
  _atom_site_occupancy
  Hg  Hg1       1.0  0.2499999974789146  0.25000000982403414  0.24999999630107994  1.0000
  Hg  Hg2       1.0  0.7500000107911243  0.7499999744089583  0.7500000058526566  1.0000
  Ni  Ni1       1.0  0.9999999147709  1.7207230611286483e-08  0.9999999918619947  1.0000
  Br  Br1       1.0  0.24022306561480652  0.24022298682113527  0.7597769855863106  1.0000
  Br  Br2       1.0  0.7597770133481541  0.7597770335470468  0.2402229505086874  1.0000
  Br  Br3       1.0  0.7597769478082114  0.24022304585651755  0.24022298846974774  1.0000
  Br  Br4       1.0  0.24022300014100195  0.7597769538629834  0.759777062795477  1.0000
  Br  Br5       1.0  0.24022309136814954  0.7597769697577057  0.240222962962528  1.0000
  Br  Br6       1.0  0.759776956509395  0.2402230075923946  0.7597770382835127  1.0000
