data_image0
_chemical_formula_structural       Hg2NbBr6
_chemical_formula_sum              "Hg2 Nb1 Br6"
_cell_length_a       8.207520672130062
_cell_length_b       8.207521173499101
_cell_length_c       8.207520784541723
_cell_angle_alpha    60.00000054022604
_cell_angle_beta     60.00000056494461
_cell_angle_gamma    60.000003620706856

_space_group_name_H-M_alt    "P 1"
_space_group_IT_number       1

loop_
  _space_group_symop_operation_xyz
  'x, y, z'

loop_
  _atom_site_type_symbol
  _atom_site_label
  _atom_site_symmetry_multiplicity
  _atom_site_fract_x
  _atom_site_fract_y
  _atom_site_fract_z
  _atom_site_occupancy
  Hg  Hg1       1.0  0.2499998941511629  0.2500000045734159  0.25000010517099014  1.0000
  Hg  Hg2       1.0  0.7500000535579977  0.7499999808913625  0.7500000074781636  1.0000
  Nb  Nb1       1.0  0.9999999757416568  1.79066701585423e-08  1.7796572839560697e-08  1.0000
  Br  Br1       1.0  0.21942124854978515  0.21942140369432764  0.7805786818377203  1.0000
  Br  Br2       1.0  0.7805787823360387  0.7805785728171185  0.21942133034324304  1.0000
  Br  Br3       1.0  0.7805786736098038  0.21942142232983913  0.21942134983246217  1.0000
  Br  Br4       1.0  0.21942130433872434  0.7805786496838516  0.7805786081693682  1.0000
  Br  Br5       1.0  0.2194213642531133  0.7805785792906701  0.219421417355784  1.0000
  Br  Br6       1.0  0.7805787149787125  0.21942137036077267  0.7805784537139456  1.0000
