data_image0
_chemical_formula_structural       Hg2NbCl6
_chemical_formula_sum              "Hg2 Nb1 Cl6"
_cell_length_a       8.038544996675263
_cell_length_b       8.03854484207792
_cell_length_c       8.03854532659184
_cell_angle_alpha    59.99999875965089
_cell_angle_beta     59.99999797546671
_cell_angle_gamma    59.99999764324986

_space_group_name_H-M_alt    "P 1"
_space_group_IT_number       1

loop_
  _space_group_symop_operation_xyz
  'x, y, z'

loop_
  _atom_site_type_symbol
  _atom_site_label
  _atom_site_symmetry_multiplicity
  _atom_site_fract_x
  _atom_site_fract_y
  _atom_site_fract_z
  _atom_site_occupancy
  Hg  Hg1       1.0  0.2500000462196297  0.24999998033505091  0.24999998896429856  1.0000
  Hg  Hg2       1.0  0.7499999836063513  0.7500000872698224  0.7499998929144424  1.0000
  Nb  Nb1       1.0  1.01423188090387e-08  0.9999999954292287  0.9999999673580781  1.0000
  Cl  Cl1       1.0  0.20969641485663612  0.20969629374379864  0.790303637552976  1.0000
  Cl  Cl2       1.0  0.7903036712401009  0.790303635214358  0.20969639001026255  1.0000
  Cl  Cl3       1.0  0.7903036255561365  0.2096962270442507  0.20969649460677936  1.0000
  Cl  Cl4       1.0  0.2096963604816851  0.7903037262913516  0.7903035546251144  1.0000
  Cl  Cl5       1.0  0.20969626376661454  0.7903037351047156  0.2096963866516184  1.0000
  Cl  Cl6       1.0  0.7903036649424391  0.2096962867924511  0.7903036843320137  1.0000
