data_image0
_chemical_formula_structural       Hg2NiF6
_chemical_formula_sum              "Hg2 Ni1 F6"
_cell_length_a       5.333445290319435
_cell_length_b       5.333445269022954
_cell_length_c       5.333445328647417
_cell_angle_alpha    60.000002707663036
_cell_angle_beta     60.000001267096124
_cell_angle_gamma    60.00000056643037

_space_group_name_H-M_alt    "P 1"
_space_group_IT_number       1

loop_
  _space_group_symop_operation_xyz
  'x, y, z'

loop_
  _atom_site_type_symbol
  _atom_site_label
  _atom_site_symmetry_multiplicity
  _atom_site_fract_x
  _atom_site_fract_y
  _atom_site_fract_z
  _atom_site_occupancy
  Hg  Hg1       1.0  0.2500000049308265  0.2500002498636864  0.24999986919997458  1.0000
  Hg  Hg2       1.0  0.749999969098575  0.7500000423157556  0.7499998903364794  1.0000
  Ni  Ni1       1.0  0.9999999528498585  5.051966372297804e-08  0.9999999589410663  1.0000
  F   F1        1.0  0.24550241344739435  0.24550230589904745  0.7544975947084355  1.0000
  F   F2        1.0  0.7544975831592365  0.7544974833801029  0.24550253998670368  1.0000
  F   F3        1.0  0.7544976589766931  0.24550230916115304  0.24550246720044808  1.0000
  F   F4        1.0  0.24550218646879945  0.7544976867893582  0.7544978159858818  1.0000
  F   F5        1.0  0.24550243145885775  0.7544975846651231  0.24550232925948354  1.0000
  F   F6        1.0  0.7544978149765612  0.24550227350447348  0.7544975560779329  1.0000
