data_image0
_chemical_formula_structural       Hg2NiBr6
_chemical_formula_sum              "Hg2 Ni1 Br6"
_cell_length_a       7.11737598599751
_cell_length_b       7.117375599840705
_cell_length_c       7.117375663177337
_cell_angle_alpha    60.00000220550036
_cell_angle_beta     60.0000014547247
_cell_angle_gamma    60.00000243345808

_space_group_name_H-M_alt    "P 1"
_space_group_IT_number       1

loop_
  _space_group_symop_operation_xyz
  'x, y, z'

loop_
  _atom_site_type_symbol
  _atom_site_label
  _atom_site_symmetry_multiplicity
  _atom_site_fract_x
  _atom_site_fract_y
  _atom_site_fract_z
  _atom_site_occupancy
  Hg  Hg1       1.0  0.24999997733817358  0.2499999845518913  0.2500000304937442  1.0000
  Hg  Hg2       1.0  0.7500000267501191  0.7500000052791206  0.7499999803663802  1.0000
  Ni  Ni1       1.0  8.034799441674581e-08  1.2045473027339787e-08  0.9999999734734379  1.0000
  Br  Br1       1.0  0.2401737128272554  0.24017374586469034  0.7598262676372174  1.0000
  Br  Br2       1.0  0.7598263020102518  0.759826304193675  0.2401737063296118  1.0000
  Br  Br3       1.0  0.7598262628450947  0.24017368820564444  0.24017370361375767  1.0000
  Br  Br4       1.0  0.24017373364030695  0.7598262465603586  0.7598263385803156  1.0000
  Br  Br5       1.0  0.24017367816625237  0.7598263212248116  0.24017367258045494  1.0000
  Br  Br6       1.0  0.7598262230239466  0.24017370474260835  0.7598263182700473  1.0000
