data_image0
_chemical_formula_structural       Hg2NbF6
_chemical_formula_sum              "Hg2 Nb1 F6"
_cell_length_a       7.342267819262482
_cell_length_b       7.342271836393209
_cell_length_c       7.342270847059581
_cell_angle_alpha    59.99999571792392
_cell_angle_beta     59.999992241001976
_cell_angle_gamma    60.000004660376355

_space_group_name_H-M_alt    "P 1"
_space_group_IT_number       1

loop_
  _space_group_symop_operation_xyz
  'x, y, z'

loop_
  _atom_site_type_symbol
  _atom_site_label
  _atom_site_symmetry_multiplicity
  _atom_site_fract_x
  _atom_site_fract_y
  _atom_site_fract_z
  _atom_site_occupancy
  Hg  Hg1       1.0  0.24999910405617876  0.25000114405384893  0.250000350843826  1.0000
  Hg  Hg2       1.0  0.7499997562928538  0.7499999025183465  0.7500003191193252  1.0000
  Nb  Nb1       1.0  2.070072616451103e-07  0.9999998932432498  3.6119164910381317e-07  1.0000
  F   F1        1.0  0.18626511171040225  0.1862640726175956  0.8137350051556274  1.0000
  F   F2        1.0  0.8137355851535127  0.8137353709362133  0.1862640880207067  1.0000
  F   F3        1.0  0.8137351347041922  0.18626467936756258  0.1862645212643333  1.0000
  F   F4        1.0  0.18626415187816178  0.8137359802116835  0.8137354222128975  1.0000
  F   F5        1.0  0.18626490056716216  0.8137347218651668  0.186264696201416  1.0000
  F   F6        1.0  0.8137358390372347  0.18626423961532457  0.8137354610667701  1.0000
