data_image0
_chemical_formula_structural       Hg2NbCl6
_chemical_formula_sum              "Hg2 Nb1 Cl6"
_cell_length_a       8.035679790664856
_cell_length_b       8.03567967126966
_cell_length_c       8.035679652012599
_cell_angle_alpha    59.99999750220699
_cell_angle_beta     59.99999906407228
_cell_angle_gamma    59.99999791804867

_space_group_name_H-M_alt    "P 1"
_space_group_IT_number       1

loop_
  _space_group_symop_operation_xyz
  'x, y, z'

loop_
  _atom_site_type_symbol
  _atom_site_label
  _atom_site_symmetry_multiplicity
  _atom_site_fract_x
  _atom_site_fract_y
  _atom_site_fract_z
  _atom_site_occupancy
  Hg  Hg1       1.0  0.24999995744266978  0.25000011747940337  0.2499999764758291  1.0000
  Hg  Hg2       1.0  0.750000060458726  0.7500001070527073  0.7499998846323445  1.0000
  Nb  Nb1       1.0  3.5264001481525452e-09  4.1151606712240985e-08  0.9999999552608991  1.0000
  Cl  Cl1       1.0  0.2097632004922545  0.2097632343812661  0.7902368218834813  1.0000
  Cl  Cl2       1.0  0.7902367665824819  0.7902367417170733  0.2097632162328087  1.0000
  Cl  Cl3       1.0  0.7902368021979561  0.20976315301817006  0.2097632760122726  1.0000
  Cl  Cl4       1.0  0.2097632157807873  0.7902367910733644  0.7902367563887659  1.0000
  Cl  Cl5       1.0  0.20976319176919547  0.7902367300440207  0.2097632954848247  1.0000
  Cl  Cl6       1.0  0.7902368094616027  0.2097630875444281  0.7902368097861818  1.0000
