data_image0
_chemical_formula_structural       Hg2NiCl6
_chemical_formula_sum              "Hg2 Ni1 Cl6"
_cell_length_a       6.78668464928884
_cell_length_b       6.78668522835233
_cell_length_c       6.786684817294616
_cell_angle_alpha    60.00000333970771
_cell_angle_beta     60.00000031399053
_cell_angle_gamma    60.000001821681366

_space_group_name_H-M_alt    "P 1"
_space_group_IT_number       1

loop_
  _space_group_symop_operation_xyz
  'x, y, z'

loop_
  _atom_site_type_symbol
  _atom_site_label
  _atom_site_symmetry_multiplicity
  _atom_site_fract_x
  _atom_site_fract_y
  _atom_site_fract_z
  _atom_site_occupancy
  Hg  Hg1       1.0  0.2500001380608467  0.2500000213850078  0.24999989125138894  1.0000
  Hg  Hg2       1.0  0.750000084814718  0.7499998782782527  0.7499998547558383  1.0000
  Ni  Ni1       1.0  0.999999902812607  1.0827775673785468e-08  1.2864126895930082e-07  1.0000
  Cl  Cl1       1.0  0.24050679737005523  0.2405068073969789  0.759493173033395  1.0000
  Cl  Cl2       1.0  0.7594931585651119  0.7594934694337234  0.24050663279124207  1.0000
  Cl  Cl3       1.0  0.7594933782728042  0.24050660376464747  0.2405067403100135  1.0000
  Cl  Cl4       1.0  0.24050648166641608  0.759493353646746  0.7594934706676918  1.0000
  Cl  Cl5       1.0  0.24050664881339054  0.7594932631900086  0.24050667740147838  1.0000
  Cl  Cl6       1.0  0.7594934129432556  0.24050660940382348  0.7594933866678876  1.0000
