data_image0
_chemical_formula_structural       Hg2NbBr6
_chemical_formula_sum              "Hg2 Nb1 Br6"
_cell_length_a       8.21720868782632
_cell_length_b       8.217208095888614
_cell_length_c       8.217207560498007
_cell_angle_alpha    60.00000137030985
_cell_angle_beta     60.0000041841825
_cell_angle_gamma    60.00000292464352

_space_group_name_H-M_alt    "P 1"
_space_group_IT_number       1

loop_
  _space_group_symop_operation_xyz
  'x, y, z'

loop_
  _atom_site_type_symbol
  _atom_site_label
  _atom_site_symmetry_multiplicity
  _atom_site_fract_x
  _atom_site_fract_y
  _atom_site_fract_z
  _atom_site_occupancy
  Hg  Hg1       1.0  0.2500000420830236  0.249999975915492  0.2500000788732563  1.0000
  Hg  Hg2       1.0  0.7499999630289285  0.7500000127028924  0.7499998668535999  1.0000
  Nb  Nb1       1.0  1.6024882087879236e-08  1.9376025649821822e-08  0.9999999932521718  1.0000
  Br  Br1       1.0  0.21913247076276252  0.21913221466378227  0.7808676772449894  1.0000
  Br  Br2       1.0  0.7808675797278828  0.7808677769355301  0.21913228567864262  1.0000
  Br  Br3       1.0  0.7808676056965557  0.21913231318942625  0.2191322419334151  1.0000
  Br  Br4       1.0  0.21913250716456698  0.7808676009057873  0.7808676993500259  1.0000
  Br  Br5       1.0  0.21913237015315848  0.7808676975617832  0.2191322642631393  1.0000
  Br  Br6       1.0  0.7808674422436078  0.21913235067513345  0.7808678660570114  1.0000
