data_image0
_chemical_formula_structural       Hg2OsI6
_chemical_formula_sum              "Hg2 Os1 I6"
_cell_length_a       7.7637480276968915
_cell_length_b       7.763748048312108
_cell_length_c       7.763747643821444
_cell_angle_alpha    59.999999021722694
_cell_angle_beta     60.00000230365602
_cell_angle_gamma    59.999996387719136

_space_group_name_H-M_alt    "P 1"
_space_group_IT_number       1

loop_
  _space_group_symop_operation_xyz
  'x, y, z'

loop_
  _atom_site_type_symbol
  _atom_site_label
  _atom_site_symmetry_multiplicity
  _atom_site_fract_x
  _atom_site_fract_y
  _atom_site_fract_z
  _atom_site_occupancy
  Hg  Hg1       1.0  0.24999999602084197  0.24999995107862738  0.2500000906277561  1.0000
  Hg  Hg2       1.0  0.7499999591386987  0.7500000961735985  0.7499999356056001  1.0000
  Os  Os1       1.0  0.9999999767472153  0.9999998154304511  0.9999998862327917  1.0000
  I   I1        1.0  0.24603792556218743  0.24603789829482295  0.7539620979661875  1.0000
  I   I2        1.0  0.7539621929732283  0.7539622388758979  0.24603782351662443  1.0000
  I   I3        1.0  0.7539621465412891  0.24603783263202078  0.2460378076567716  1.0000
  I   I4        1.0  0.24603770028521302  0.7539622540581467  0.7539623264422832  1.0000
  I   I5        1.0  0.24603784265858109  0.7539621825557814  0.2460377485162457  1.0000
  I   I6        1.0  0.7539622435353078  0.24603775269269013  0.7539622900984582  1.0000
