data_image0
_chemical_formula_structural       Hg2OsCl6
_chemical_formula_sum              "Hg2 Os1 Cl6"
_cell_length_a       7.450036986502075
_cell_length_b       7.450037614231661
_cell_length_c       7.45003769717335
_cell_angle_alpha    59.999998849745324
_cell_angle_beta     59.999999198169384
_cell_angle_gamma    60.00000546017154

_space_group_name_H-M_alt    "P 1"
_space_group_IT_number       1

loop_
  _space_group_symop_operation_xyz
  'x, y, z'

loop_
  _atom_site_type_symbol
  _atom_site_label
  _atom_site_symmetry_multiplicity
  _atom_site_fract_x
  _atom_site_fract_y
  _atom_site_fract_z
  _atom_site_occupancy
  Hg  Hg1       1.0  0.2499999703398297  0.2500000432679577  0.24999995608713704  1.0000
  Hg  Hg2       1.0  0.7500000280967248  0.7499999506139249  0.750000001330677  1.0000
  Os  Os1       1.0  0.9999997987138015  0.9999999621892633  2.1753454554013948e-07  1.0000
  Cl  Cl1       1.0  0.22122656675534283  0.22122634478858344  0.778773533812499  1.0000
  Cl  Cl2       1.0  0.7787735436708341  0.7787734386684055  0.22122653456760794  1.0000
  Cl  Cl3       1.0  0.7787733311236104  0.2212267481651047  0.22122655300805097  1.0000
  Cl  Cl4       1.0  0.2212267883468162  0.778773319694287  0.7787733511991523  1.0000
  Cl  Cl5       1.0  0.22122667649291503  0.77877342494438  0.22122650858697296  1.0000
  Cl  Cl6       1.0  0.7787732781507579  0.22122677936239896  0.7787733467229805  1.0000
