data_image0
_chemical_formula_structural       Hg2OsBr6
_chemical_formula_sum              "Hg2 Os1 Br6"
_cell_length_a       7.5130469164397935
_cell_length_b       7.513047320895246
_cell_length_c       7.513047320110258
_cell_angle_alpha    59.99999776048353
_cell_angle_beta     59.9999988102454
_cell_angle_gamma    60.00000110768176

_space_group_name_H-M_alt    "P 1"
_space_group_IT_number       1

loop_
  _space_group_symop_operation_xyz
  'x, y, z'

loop_
  _atom_site_type_symbol
  _atom_site_label
  _atom_site_symmetry_multiplicity
  _atom_site_fract_x
  _atom_site_fract_y
  _atom_site_fract_z
  _atom_site_occupancy
  Hg  Hg1       1.0  0.2499999660956363  0.2499999913351899  0.25000003279081795  1.0000
  Hg  Hg2       1.0  0.7499999976117945  0.7500000310610782  0.7499999642795072  1.0000
  Os  Os1       1.0  0.9999998286232614  9.454911849330168e-08  8.499943199508621e-08  1.0000
  Br  Br1       1.0  0.2337179108056664  0.23371793362213292  0.7662821187710831  1.0000
  Br  Br2       1.0  0.7662821901384337  0.7662820920344497  0.233717887911821  1.0000
  Br  Br3       1.0  0.7662820978430149  0.23371789482796787  0.23371800528621264  1.0000
  Br  Br4       1.0  0.233717997406269  0.7662819727033618  0.7662819315706952  1.0000
  Br  Br5       1.0  0.23371795450705038  0.7662820412224912  0.233718040280963  1.0000
  Br  Br6       1.0  0.7662820625586683  0.23371795020078903  0.7662819482587484  1.0000
