data_image0
_chemical_formula_structural       Hg2OsF6
_chemical_formula_sum              "Hg2 Os1 F6"
_cell_length_a       7.067097043664517
_cell_length_b       7.067097083620322
_cell_length_c       7.067097110130567
_cell_angle_alpha    59.99999856971446
_cell_angle_beta     60.000003140041244
_cell_angle_gamma    59.9999992987095

_space_group_name_H-M_alt    "P 1"
_space_group_IT_number       1

loop_
  _space_group_symop_operation_xyz
  'x, y, z'

loop_
  _atom_site_type_symbol
  _atom_site_label
  _atom_site_symmetry_multiplicity
  _atom_site_fract_x
  _atom_site_fract_y
  _atom_site_fract_z
  _atom_site_occupancy
  Hg  Hg1       1.0  0.2500001614765643  0.24999983530909736  0.25000020445920323  1.0000
  Hg  Hg2       1.0  0.7500000707471085  0.7499998646632726  0.7500004201096258  1.0000
  Os  Os1       1.0  0.9999998807075111  2.9461413211795712e-08  0.999999897754687  1.0000
  F   F1        1.0  0.19115797468725507  0.19115808125345296  0.808842010485137  1.0000
  F   F2        1.0  0.8088419090941258  0.8088420121153865  0.19115804824346125  1.0000
  F   F3        1.0  0.8088419268167522  0.19115816708400035  0.19115793059485778  1.0000
  F   F4        1.0  0.19115789861947016  0.808842101320275  0.8088417259416184  1.0000
  F   F5        1.0  0.19115811766684263  0.8088419140249312  0.19115799326164726  1.0000
  F   F6        1.0  0.8088420836907919  0.19115797658010372  0.8088417377941802  1.0000
