data_image0
_chemical_formula_structural       Hg2PdF6
_chemical_formula_sum              "Hg2 Pd1 F6"
_cell_length_a       5.820504433989273
_cell_length_b       5.820504218093428
_cell_length_c       5.820504314384858
_cell_angle_alpha    60.00000207558609
_cell_angle_beta     60.00000532763081
_cell_angle_gamma    60.00000053032576

_space_group_name_H-M_alt    "P 1"
_space_group_IT_number       1

loop_
  _space_group_symop_operation_xyz
  'x, y, z'

loop_
  _atom_site_type_symbol
  _atom_site_label
  _atom_site_symmetry_multiplicity
  _atom_site_fract_x
  _atom_site_fract_y
  _atom_site_fract_z
  _atom_site_occupancy
  Hg  Hg1       1.0  0.24999996260455215  0.2499997830762278  0.25000019292100045  1.0000
  Hg  Hg2       1.0  0.7499999248737858  0.750000041507294  0.7500000062078799  1.0000
  Pd  Pd1       1.0  9.530736864606238e-08  0.9999998569150574  0.9999999998358888  1.0000
  F   F1        1.0  0.23986475069126195  0.23986490399677404  0.76013518336477  1.0000
  F   F2        1.0  0.7601351006925632  0.7601351836105372  0.23986487824657754  1.0000
  F   F3        1.0  0.7601354491415137  0.23986463109134348  0.23986447341781172  1.0000
  F   F4        1.0  0.23986474839483785  0.7601354060153934  0.7601351311160176  1.0000
  F   F5        1.0  0.23986459622551004  0.7601354501842764  0.23986470571533802  1.0000
  F   F6        1.0  0.7601353608214569  0.23986474894512272  0.7601354311362684  1.0000
