data_image0
_chemical_formula_structural       Hg2PbBr6
_chemical_formula_sum              "Hg2 Pb1 Br6"
_cell_length_a       7.567331377453269
_cell_length_b       7.567331539955868
_cell_length_c       7.567331589414947
_cell_angle_alpha    59.999998235622016
_cell_angle_beta     60.00000135817957
_cell_angle_gamma    60.00000110549357

_space_group_name_H-M_alt    "P 1"
_space_group_IT_number       1

loop_
  _space_group_symop_operation_xyz
  'x, y, z'

loop_
  _atom_site_type_symbol
  _atom_site_label
  _atom_site_symmetry_multiplicity
  _atom_site_fract_x
  _atom_site_fract_y
  _atom_site_fract_z
  _atom_site_occupancy
  Hg  Hg1       1.0  0.2499999838283932  0.24999997291266082  0.2500000091843588  1.0000
  Hg  Hg2       1.0  0.7500000350077775  0.7499999931872974  0.7500000040688513  1.0000
  Pb  Pb1       1.0  0.9999998848776673  8.901548371977388e-08  0.9999999985172539  1.0000
  Br  Br1       1.0  0.2618251139124737  0.2618251347401317  0.73817486795821  1.0000
  Br  Br2       1.0  0.7381748390004694  0.738174900953751  0.2618251091014353  1.0000
  Br  Br3       1.0  0.7381748271561581  0.26182513400349006  0.26182516414297474  1.0000
  Br  Br4       1.0  0.2618251673581427  0.7381748272410786  0.7381748200903621  1.0000
  Br  Br5       1.0  0.2618251939408323  0.7381748931230873  0.2618251164646207  1.0000
  Br  Br6       1.0  0.73817495595366  0.261825055173774  0.7381749115203474  1.0000
