data_image0
_chemical_formula_structural       Hg2PdF6
_chemical_formula_sum              "Hg2 Pd1 F6"
_cell_length_a       5.821186890572708
_cell_length_b       5.821186820203197
_cell_length_c       5.821186404249524
_cell_angle_alpha    60.000006459827965
_cell_angle_beta     60.00000697580954
_cell_angle_gamma    59.99999692482798

_space_group_name_H-M_alt    "P 1"
_space_group_IT_number       1

loop_
  _space_group_symop_operation_xyz
  'x, y, z'

loop_
  _atom_site_type_symbol
  _atom_site_label
  _atom_site_symmetry_multiplicity
  _atom_site_fract_x
  _atom_site_fract_y
  _atom_site_fract_z
  _atom_site_occupancy
  Hg  Hg1       1.0  0.24999996751209272  0.24999998286768635  0.25000013118936426  1.0000
  Hg  Hg2       1.0  0.7500000043814068  0.7499999822661453  0.7500002708423776  1.0000
  Pd  Pd1       1.0  0.9999999644152255  0.9999999936881754  1.2058434483176864e-07  1.0000
  F   F1        1.0  0.23985845691940333  0.23985866719627638  0.7601411945934657  1.0000
  F   F2        1.0  0.7601413288750607  0.7601412790020553  0.2398585351993817  1.0000
  F   F3        1.0  0.7601419982534139  0.23985807567804407  0.23985773514428912  1.0000
  F   F4        1.0  0.23985780300416043  0.7601421692802776  0.7601422189025758  1.0000
  F   F5        1.0  0.23985811110712796  0.7601420713485946  0.23985764435053716  1.0000
  F   F6        1.0  0.7601423502206964  0.2398577822761767  0.7601421255099636  1.0000
