data_image0
_chemical_formula_structural       Hg2PtBr6
_chemical_formula_sum              "Hg2 Pt1 Br6"
_cell_length_a       7.284942030740565
_cell_length_b       7.284942095348215
_cell_length_c       7.284941789569611
_cell_angle_alpha    60.00000116662963
_cell_angle_beta     60.00000158890026
_cell_angle_gamma    59.99999790306442

_space_group_name_H-M_alt    "P 1"
_space_group_IT_number       1

loop_
  _space_group_symop_operation_xyz
  'x, y, z'

loop_
  _atom_site_type_symbol
  _atom_site_label
  _atom_site_symmetry_multiplicity
  _atom_site_fract_x
  _atom_site_fract_y
  _atom_site_fract_z
  _atom_site_occupancy
  Hg  Hg1       1.0  0.25000001459688764  0.2499999807685916  0.2500000172738543  1.0000
  Hg  Hg2       1.0  0.7499999881847291  0.7500000045101975  0.7499999936145354  1.0000
  Pt  Pt1       1.0  5.758924357582185e-08  5.547961693478949e-08  0.999999810314197  1.0000
  Br  Br1       1.0  0.24147213473415016  0.24147213276454782  0.7585278777875227  1.0000
  Br  Br2       1.0  0.758527812010278  0.7585278541954438  0.24147215341538675  1.0000
  Br  Br3       1.0  0.7585279152663192  0.24147207038250273  0.2414720427387825  1.0000
  Br  Br4       1.0  0.24147199647784043  0.7585279787819106  0.7585280187882762  1.0000
  Br  Br5       1.0  0.24147210591399476  0.7585279137990802  0.24147206683639805  1.0000
  Br  Br6       1.0  0.7585279768097224  0.24147200759408438  0.7585280225035116  1.0000
