data_image0
_chemical_formula_structural       Hg2PtI6
_chemical_formula_sum              "Hg2 Pt1 I6"
_cell_length_a       7.6927129284918125
_cell_length_b       7.692712855020021
_cell_length_c       7.692713077233245
_cell_angle_alpha    59.999999349507355
_cell_angle_beta     59.999998920403925
_cell_angle_gamma    60.000001542411034

_space_group_name_H-M_alt    "P 1"
_space_group_IT_number       1

loop_
  _space_group_symop_operation_xyz
  'x, y, z'

loop_
  _atom_site_type_symbol
  _atom_site_label
  _atom_site_symmetry_multiplicity
  _atom_site_fract_x
  _atom_site_fract_y
  _atom_site_fract_z
  _atom_site_occupancy
  Hg  Hg1       1.0  0.24999996418381243  0.24999999323828784  0.2500000537121283  1.0000
  Hg  Hg2       1.0  0.7500000266583262  0.750000005188218  0.7499999539529765  1.0000
  Pt  Pt1       1.0  4.1347328709165787e-08  0.99999995701372  0.9999999670212566  1.0000
  I   I1        1.0  0.2487405523472151  0.2487404611218004  0.7512594842719764  1.0000
  I   I2        1.0  0.7512593962995541  0.7512595197917749  0.24874052464878554  1.0000
  I   I3        1.0  0.7512594964915479  0.2487405711087561  0.2487405285172928  1.0000
  I   I4        1.0  0.24874047876271474  0.7512595101061421  0.7512594910451564  1.0000
  I   I5        1.0  0.2487405251052123  0.751259521861606  0.24874051956470428  1.0000
  I   I6        1.0  0.7512595159837703  0.24874046542030961  0.7512594802486569  1.0000
