data_image0
_chemical_formula_structural       Hg2PtCl6
_chemical_formula_sum              "Hg2 Pt1 Cl6"
_cell_length_a       7.099199310407035
_cell_length_b       7.099198864717522
_cell_length_c       7.099199534538446
_cell_angle_alpha    59.999996924067254
_cell_angle_beta     59.999998068139455
_cell_angle_gamma    60.00000443686266

_space_group_name_H-M_alt    "P 1"
_space_group_IT_number       1

loop_
  _space_group_symop_operation_xyz
  'x, y, z'

loop_
  _atom_site_type_symbol
  _atom_site_label
  _atom_site_symmetry_multiplicity
  _atom_site_fract_x
  _atom_site_fract_y
  _atom_site_fract_z
  _atom_site_occupancy
  Hg  Hg1       1.0  0.25000000301200653  0.24999998099205797  0.2500000222859256  1.0000
  Hg  Hg2       1.0  0.7500000091008313  0.7499999964569851  0.7500000006438988  1.0000
  Pt  Pt1       1.0  1.6370657582071025e-07  0.999999830931642  0.9999999181643191  1.0000
  Cl  Cl1       1.0  0.23329438570252345  0.23329427711896644  0.7667056735079477  1.0000
  Cl  Cl2       1.0  0.7667055747364419  0.7667058797495682  0.23329426441992493  1.0000
  Cl  Cl3       1.0  0.7667054553705819  0.2332945222898077  0.23329459018982812  1.0000
  Cl  Cl4       1.0  0.23329440332199053  0.7667055396934087  0.766705578463195  1.0000
  Cl  Cl5       1.0  0.23329447030839456  0.7667055238297932  0.2332944969684079  1.0000
  Cl  Cl6       1.0  0.7667055565418082  0.2332944484436885  0.7667054873738862  1.0000
