data_image0
_chemical_formula_structural       Hg2PF6
_chemical_formula_sum              "Hg2 P1 F6"
_cell_length_a       6.997781001727119
_cell_length_b       6.997780402325248
_cell_length_c       6.997780875782246
_cell_angle_alpha    59.99998901830859
_cell_angle_beta     59.99999755098088
_cell_angle_gamma    59.99999637694005

_space_group_name_H-M_alt    "P 1"
_space_group_IT_number       1

loop_
  _space_group_symop_operation_xyz
  'x, y, z'

loop_
  _atom_site_type_symbol
  _atom_site_label
  _atom_site_symmetry_multiplicity
  _atom_site_fract_x
  _atom_site_fract_y
  _atom_site_fract_z
  _atom_site_occupancy
  Hg  Hg1       1.0  0.24999999160261183  0.2500001146599996  0.2499999934913576  1.0000
  Hg  Hg2       1.0  0.7499999543089765  0.7500002074651532  0.7499997203021388  1.0000
  P   P1        1.0  0.999999973998856  0.9999999789977095  3.4933914857047655e-08  1.0000
  F   F1        1.0  0.16617495026205636  0.1661753262217383  0.8338248675630439  1.0000
  F   F2        1.0  0.8338250265411158  0.8338246161120181  0.16617520931161103  1.0000
  F   F3        1.0  0.8338247780828872  0.16617503338049766  0.1661752320241637  1.0000
  F   F4        1.0  0.1661751941703798  0.8338248879509758  0.8338247933204864  1.0000
  F   F5        1.0  0.16617525375883238  0.8338248151830779  0.16617509453447127  1.0000
  F   F6        1.0  0.8338247039438623  0.16617509039667538  0.8338249831159623  1.0000
