data_image0
_chemical_formula_structural       Hg2PdBr6
_chemical_formula_sum              "Hg2 Pd1 Br6"
_cell_length_a       7.24114338747723
_cell_length_b       7.241143352959994
_cell_length_c       7.241143357651873
_cell_angle_alpha    60.000000466815976
_cell_angle_beta     59.99999934141999
_cell_angle_gamma    59.99999985747475

_space_group_name_H-M_alt    "P 1"
_space_group_IT_number       1

loop_
  _space_group_symop_operation_xyz
  'x, y, z'

loop_
  _atom_site_type_symbol
  _atom_site_label
  _atom_site_symmetry_multiplicity
  _atom_site_fract_x
  _atom_site_fract_y
  _atom_site_fract_z
  _atom_site_occupancy
  Hg  Hg1       1.0  0.24999999728076056  0.24999998605571971  0.24999999824766891  1.0000
  Hg  Hg2       1.0  0.7500000015703812  0.7500000055255038  0.7499999993437221  1.0000
  Pd  Pd1       1.0  3.6700848106216324e-09  1.4207503368099175e-07  0.9999999077934779  1.0000
  Br  Br1       1.0  0.24473352983261484  0.24473356820353045  0.7552664604061401  1.0000
  Br  Br2       1.0  0.7552664142702235  0.7552663675625017  0.2447336062769721  1.0000
  Br  Br3       1.0  0.7552664483512289  0.24473356832254273  0.2447335533856092  1.0000
  Br  Br4       1.0  0.24473355331886207  0.7552664148018337  0.7552664428817385  1.0000
  Br  Br5       1.0  0.2447336008051446  0.7552663850721617  0.24473362068832724  1.0000
  Br  Br6       1.0  0.7552664418750824  0.2447335659161954  0.7552664153338778  1.0000
