data_image0
_chemical_formula_structural       Hg2PCl6
_chemical_formula_sum              "Hg2 P1 Cl6"
_cell_length_a       7.916031900791603
_cell_length_b       7.916031551679543
_cell_length_c       7.916032180566835
_cell_angle_alpha    60.00000586214731
_cell_angle_beta     60.000005663108276
_cell_angle_gamma    59.99999856580414

_space_group_name_H-M_alt    "P 1"
_space_group_IT_number       1

loop_
  _space_group_symop_operation_xyz
  'x, y, z'

loop_
  _atom_site_type_symbol
  _atom_site_label
  _atom_site_symmetry_multiplicity
  _atom_site_fract_x
  _atom_site_fract_y
  _atom_site_fract_z
  _atom_site_occupancy
  Hg  Hg1       1.0  0.2500000448428671  0.24999993202005444  0.25000008090677167  1.0000
  Hg  Hg2       1.0  0.7500000054662979  0.7500001132300453  0.7499998707495288  1.0000
  P   P1        1.0  0.9999999191376974  5.879247544371232e-08  5.272246481562694e-08  1.0000
  Cl  Cl1       1.0  0.19543709380308116  0.19543686638071314  0.8045628517157705  1.0000
  Cl  Cl2       1.0  0.804562992576348  0.8045631231712366  0.19543682173138735  1.0000
  Cl  Cl3       1.0  0.8045629203187361  0.19543692315606404  0.19543695908281244  1.0000
  Cl  Cl4       1.0  0.19543702253564252  0.8045630199808165  0.8045632312629474  1.0000
  Cl  Cl5       1.0  0.19543699455832605  0.8045631225145405  0.19543684633835204  1.0000
  Cl  Cl6       1.0  0.8045630262106177  0.19543681443365366  0.8045632879323259  1.0000
