data_image0
_chemical_formula_structural       Hg2PdBr6
_chemical_formula_sum              "Hg2 Pd1 Br6"
_cell_length_a       7.243420922834425
_cell_length_b       7.243420724499325
_cell_length_c       7.24342082729776
_cell_angle_alpha    59.999999663357556
_cell_angle_beta     59.99999934058293
_cell_angle_gamma    59.99999982420171

_space_group_name_H-M_alt    "P 1"
_space_group_IT_number       1

loop_
  _space_group_symop_operation_xyz
  'x, y, z'

loop_
  _atom_site_type_symbol
  _atom_site_label
  _atom_site_symmetry_multiplicity
  _atom_site_fract_x
  _atom_site_fract_y
  _atom_site_fract_z
  _atom_site_occupancy
  Hg  Hg1       1.0  0.2499999808505707  0.25000001833425184  0.25000000498738356  1.0000
  Hg  Hg2       1.0  0.7500000071073899  0.7499999856784104  0.7499999924963469  1.0000
  Pd  Pd1       1.0  1.322830357041363e-07  0.9999998900955516  9.37335058808288e-08  1.0000
  Br  Br1       1.0  0.24465654716358326  0.24465647860733725  0.7553434953711577  1.0000
  Br  Br2       1.0  0.7553434634825064  0.7553435338595138  0.2446565113915505  1.0000
  Br  Br3       1.0  0.7553434559995675  0.24465649728884628  0.24465651854994258  1.0000
  Br  Br4       1.0  0.24465651086440066  0.7553434982696274  0.7553434826633731  1.0000
  Br  Br5       1.0  0.24465648255334513  0.7553435427296559  0.24465645001903338  1.0000
  Br  Br6       1.0  0.7553434261149037  0.24465655089740315  0.7553434456629335  1.0000
