data_image0
_chemical_formula_structural       Hg2PtCl6
_chemical_formula_sum              "Hg2 Pt1 Cl6"
_cell_length_a       7.107920375350031
_cell_length_b       7.107920821058858
_cell_length_c       7.107920638872014
_cell_angle_alpha    59.999999441134456
_cell_angle_beta     59.99999766389816
_cell_angle_gamma    60.00000090890746

_space_group_name_H-M_alt    "P 1"
_space_group_IT_number       1

loop_
  _space_group_symop_operation_xyz
  'x, y, z'

loop_
  _atom_site_type_symbol
  _atom_site_label
  _atom_site_symmetry_multiplicity
  _atom_site_fract_x
  _atom_site_fract_y
  _atom_site_fract_z
  _atom_site_occupancy
  Hg  Hg1       1.0  0.2500000023829613  0.25000001781564835  0.25000001617693346  1.0000
  Hg  Hg2       1.0  0.7499999863425769  0.7500000086471132  0.7499999814453046  1.0000
  Pt  Pt1       1.0  1.9084105482246372e-07  0.999999987938507  0.9999999781405158  1.0000
  Cl  Cl1       1.0  0.23299844186647195  0.23299845287857002  0.7670016032233806  1.0000
  Cl  Cl2       1.0  0.7670014940718525  0.7670014736461017  0.23299854673309642  1.0000
  Cl  Cl3       1.0  0.7670014674060962  0.2329985592272255  0.23299853877442295  1.0000
  Cl  Cl4       1.0  0.23299854007612958  0.7670014207126331  0.76700145725523  1.0000
  Cl  Cl5       1.0  0.23299845112619508  0.7670014959121335  0.23299854501480127  1.0000
  Cl  Cl6       1.0  0.7670014383708657  0.23299859430423714  0.7670013451324436  1.0000
