data_image0
_chemical_formula_structural       Hg2PI6
_chemical_formula_sum              "Hg2 P1 I6"
_cell_length_a       7.825595465567246
_cell_length_b       7.825595569653664
_cell_length_c       7.8255957023643745
_cell_angle_alpha    59.99999926220348
_cell_angle_beta     59.999998952916016
_cell_angle_gamma    60.000002419516996

_space_group_name_H-M_alt    "P 1"
_space_group_IT_number       1

loop_
  _space_group_symop_operation_xyz
  'x, y, z'

loop_
  _atom_site_type_symbol
  _atom_site_label
  _atom_site_symmetry_multiplicity
  _atom_site_fract_x
  _atom_site_fract_y
  _atom_site_fract_z
  _atom_site_occupancy
  Hg  Hg1       1.0  0.24999996054576779  0.25000001866761845  0.2500000047096154  1.0000
  Hg  Hg2       1.0  0.7500000279258204  0.7499999934008582  0.7499999876198822  1.0000
  P   P1        1.0  1.9092557068989777e-08  4.695150760327297e-09  0.9999999612711282  1.0000
  I   I1        1.0  0.2510159789685116  0.2510160341841313  0.7489839990879306  1.0000
  I   I2        1.0  0.7489839906943951  0.7489839324978936  0.25101605217415157  1.0000
  I   I3        1.0  0.7489839980482563  0.25101602038798115  0.2510160576554534  1.0000
  I   I4        1.0  0.25101601246697575  0.7489839963756463  0.7489839443060909  1.0000
  I   I5        1.0  0.2510160677057428  0.7489839597257932  0.25101604627664376  1.0000
  I   I6        1.0  0.7489839490696888  0.25101603825723406  0.7489839402215148  1.0000
