data_image0
_chemical_formula_structural       Hg2PtF6
_chemical_formula_sum              "Hg2 Pt1 F6"
_cell_length_a       6.079444500901562
_cell_length_b       6.079444885932045
_cell_length_c       6.079444844420002
_cell_angle_alpha    60.000003002998454
_cell_angle_beta     60.00000265624449
_cell_angle_gamma    60.00000626927172

_space_group_name_H-M_alt    "P 1"
_space_group_IT_number       1

loop_
  _space_group_symop_operation_xyz
  'x, y, z'

loop_
  _atom_site_type_symbol
  _atom_site_label
  _atom_site_symmetry_multiplicity
  _atom_site_fract_x
  _atom_site_fract_y
  _atom_site_fract_z
  _atom_site_occupancy
  Hg  Hg1       1.0  0.2500000087097451  0.25000025135539716  0.24999984392384175  1.0000
  Hg  Hg2       1.0  0.7500000903225508  0.7499996782875048  0.7500003797006936  1.0000
  Pt  Pt1       1.0  0.9999999375122817  5.640786887213274e-08  0.9999999750768442  1.0000
  F   F1        1.0  0.22856668451775064  0.22856661025951172  0.7714333217316003  1.0000
  F   F2        1.0  0.7714334241265043  0.7714333133396845  0.22856651520524268  1.0000
  F   F3        1.0  0.7714333468000127  0.22856671315242993  0.22856651070509906  1.0000
  F   F4        1.0  0.22856665143163424  0.7714332567818004  0.7714334076171389  1.0000
  F   F5        1.0  0.22856663505253527  0.7714333114259964  0.22856659481194191  1.0000
  F   F6        1.0  0.7714333001350901  0.2285667108869704  0.7714334012179671  1.0000
