data_image0
_chemical_formula_structural       Hg2PdI6
_chemical_formula_sum              "Hg2 Pd1 I6"
_cell_length_a       7.647228047408224
_cell_length_b       7.647227892581844
_cell_length_c       7.647228250309184
_cell_angle_alpha    59.999998708785895
_cell_angle_beta     59.999997840172334
_cell_angle_gamma    60.0000003465235

_space_group_name_H-M_alt    "P 1"
_space_group_IT_number       1

loop_
  _space_group_symop_operation_xyz
  'x, y, z'

loop_
  _atom_site_type_symbol
  _atom_site_label
  _atom_site_symmetry_multiplicity
  _atom_site_fract_x
  _atom_site_fract_y
  _atom_site_fract_z
  _atom_site_occupancy
  Hg  Hg1       1.0  0.24999999973806525  0.24999999514415389  0.2499999973311628  1.0000
  Hg  Hg2       1.0  0.7500000079075757  0.7500000046511106  0.7500000002677505  1.0000
  Pd  Pd1       1.0  1.7454827866431676e-07  0.9999998206259497  2.3335497119093755e-08  1.0000
  I   I1        1.0  0.25191636633370507  0.25191628730587234  0.748083667263578  1.0000
  I   I2        1.0  0.7480836222163123  0.7480837108878374  0.25191633414560805  1.0000
  I   I3        1.0  0.748083598436953  0.2519164422150096  0.25191639436519153  1.0000
  I   I4        1.0  0.2519163150101946  0.7480836408610645  0.7480837054596515  1.0000
  I   I5        1.0  0.2519163219851249  0.74808364822696  0.25191635035548327  1.0000
  I   I6        1.0  0.7480835966016358  0.251916455669315  0.748083525955656  1.0000
