data_image0
_chemical_formula_structural       Hg2PbF6
_chemical_formula_sum              "Hg2 Pb1 F6"
_cell_length_a       6.170320605499013
_cell_length_b       6.170320716992437
_cell_length_c       6.170320381386909
_cell_angle_alpha    60.00000097289622
_cell_angle_beta     59.9999984977385
_cell_angle_gamma    59.99999882079164

_space_group_name_H-M_alt    "P 1"
_space_group_IT_number       1

loop_
  _space_group_symop_operation_xyz
  'x, y, z'

loop_
  _atom_site_type_symbol
  _atom_site_label
  _atom_site_symmetry_multiplicity
  _atom_site_fract_x
  _atom_site_fract_y
  _atom_site_fract_z
  _atom_site_occupancy
  Hg  Hg1       1.0  0.2500000688303877  0.24999993936954956  0.2500000361172022  1.0000
  Hg  Hg2       1.0  0.7499999626410221  0.7500000443868656  0.7499999793813541  1.0000
  Pb  Pb1       1.0  7.0314419044299745e-09  2.3818759043141624e-08  0.9999999716096081  1.0000
  F   F1        1.0  0.24046268118966127  0.24046266862711044  0.7595373330376142  1.0000
  F   F2        1.0  0.7595373297160608  0.7595372813860631  0.24046272582202138  1.0000
  F   F3        1.0  0.75953732475894  0.24046267419919398  0.240462686826937  1.0000
  F   F4        1.0  0.24046271794074134  0.7595373095572211  0.7595373181954993  1.0000
  F   F5        1.0  0.24046263854734118  0.7595373150709986  0.24046270713784598  1.0000
  F   F6        1.0  0.7595372811505182  0.24046274014169627  0.7595372620722307  1.0000
