data_image0
_chemical_formula_structural       Hg2PBr6
_chemical_formula_sum              "Hg2 P1 Br6"
_cell_length_a       7.981058701749626
_cell_length_b       7.9810583292673964
_cell_length_c       7.981058785832571
_cell_angle_alpha    59.9999974406867
_cell_angle_beta     59.99999983042613
_cell_angle_gamma    60.00000079752332

_space_group_name_H-M_alt    "P 1"
_space_group_IT_number       1

loop_
  _space_group_symop_operation_xyz
  'x, y, z'

loop_
  _atom_site_type_symbol
  _atom_site_label
  _atom_site_symmetry_multiplicity
  _atom_site_fract_x
  _atom_site_fract_y
  _atom_site_fract_z
  _atom_site_occupancy
  Hg  Hg1       1.0  0.25000015312123813  0.24999993792729383  0.24999996822388423  1.0000
  Hg  Hg2       1.0  0.7499999413611302  0.7500000439665441  0.7500000097386472  1.0000
  P   P1        1.0  3.5144491963782696e-07  0.9999997790227199  0.999999894671251  1.0000
  Br  Br1       1.0  0.21428801391854826  0.2142879551514806  0.7857120415091133  1.0000
  Br  Br2       1.0  0.7857119076046095  0.7857120681755935  0.21428803980540262  1.0000
  Br  Br3       1.0  0.7857118808979529  0.21428798842040972  0.21428818335080363  1.0000
  Br  Br4       1.0  0.21428796908748854  0.7857121193077116  0.7857118602078818  1.0000
  Br  Br5       1.0  0.21428784323182457  0.7857121639131356  0.21428809449597655  1.0000
  Br  Br6       1.0  0.7857118931283121  0.21428795916062757  0.7857119305423441  1.0000
