data_image0
_chemical_formula_structural       Hg2PdCl6
_chemical_formula_sum              "Hg2 Pd1 Cl6"
_cell_length_a       6.977007337865013
_cell_length_b       6.977008022931605
_cell_length_c       6.977007472002432
_cell_angle_alpha    60.00000830712666
_cell_angle_beta     60.000004905586536
_cell_angle_gamma    59.9999999493371

_space_group_name_H-M_alt    "P 1"
_space_group_IT_number       1

loop_
  _space_group_symop_operation_xyz
  'x, y, z'

loop_
  _atom_site_type_symbol
  _atom_site_label
  _atom_site_symmetry_multiplicity
  _atom_site_fract_x
  _atom_site_fract_y
  _atom_site_fract_z
  _atom_site_occupancy
  Hg  Hg1       1.0  0.2499999126936685  0.25000014060072867  0.25000007685300646  1.0000
  Hg  Hg2       1.0  0.7500000306764434  0.7499998319873669  0.7500000079493723  1.0000
  Pd  Pd1       1.0  6.790405531249032e-08  8.425924717741984e-08  0.999999875186861  1.0000
  Cl  Cl1       1.0  0.2386191821867998  0.23861915342816167  0.7613809438990687  1.0000
  Cl  Cl2       1.0  0.7613809693472399  0.7613807805410963  0.23861912636145508  1.0000
  Cl  Cl3       1.0  0.7613807737238556  0.23861920094477113  0.2386191090060837  1.0000
  Cl  Cl4       1.0  0.238619057857157  0.7613808190391593  0.7613809176963321  1.0000
  Cl  Cl5       1.0  0.23861920350587215  0.7613808208118366  0.23861903748965296  1.0000
  Cl  Cl6       1.0  0.7613807950646425  0.2386191500208481  0.7613808944616585  1.0000
