data_image0
_chemical_formula_structural       Hg2PtBr6
_chemical_formula_sum              "Hg2 Pt1 Br6"
_cell_length_a       7.283215689605335
_cell_length_b       7.283215511700211
_cell_length_c       7.283215511858698
_cell_angle_alpha    60.00000076579857
_cell_angle_beta     59.999999190880075
_cell_angle_gamma    59.999999283328634

_space_group_name_H-M_alt    "P 1"
_space_group_IT_number       1

loop_
  _space_group_symop_operation_xyz
  'x, y, z'

loop_
  _atom_site_type_symbol
  _atom_site_label
  _atom_site_symmetry_multiplicity
  _atom_site_fract_x
  _atom_site_fract_y
  _atom_site_fract_z
  _atom_site_occupancy
  Hg  Hg1       1.0  0.24999997943419275  0.24999998435284074  0.25000003078978905  1.0000
  Hg  Hg2       1.0  0.7500000186619846  0.7500000068696923  0.7499999827204605  1.0000
  Pt  Pt1       1.0  3.5022232312097835e-08  7.567195927126773e-08  0.9999999405338444  1.0000
  Br  Br1       1.0  0.24148785878761073  0.24148789858885483  0.7585121263705373  1.0000
  Br  Br2       1.0  0.7585120467136067  0.7585120707728905  0.24148793612946745  1.0000
  Br  Br3       1.0  0.7585121877658049  0.24148783598440426  0.24148782875085736  1.0000
  Br  Br4       1.0  0.24148785388977498  0.7585121434669344  0.7585121386588493  1.0000
  Br  Br5       1.0  0.24148791991998209  0.7585120752786871  0.24148792648085726  1.0000
  Br  Br6       1.0  0.7585120972013168  0.24148791594384614  0.7585120898740105  1.0000
