data_image0
_chemical_formula_structural       Hg2RuBr6
_chemical_formula_sum              "Hg2 Ru1 Br6"
_cell_length_a       7.353698752122041
_cell_length_b       7.353698711086982
_cell_length_c       7.353698831678664
_cell_angle_alpha    59.99999960486672
_cell_angle_beta     60.00000010187524
_cell_angle_gamma    60.00000175162834

_space_group_name_H-M_alt    "P 1"
_space_group_IT_number       1

loop_
  _space_group_symop_operation_xyz
  'x, y, z'

loop_
  _atom_site_type_symbol
  _atom_site_label
  _atom_site_symmetry_multiplicity
  _atom_site_fract_x
  _atom_site_fract_y
  _atom_site_fract_z
  _atom_site_occupancy
  Hg  Hg1       1.0  0.24999997047826503  0.25000000283714263  0.2500000300135577  1.0000
  Hg  Hg2       1.0  0.7500000272672245  0.7500000001840232  0.7499999696550271  1.0000
  Ru  Ru1       1.0  0.9999999622028655  3.330962783831832e-08  4.9838848993398326e-08  1.0000
  Br  Br1       1.0  0.23938650618648238  0.2393864839487854  0.7606135112418461  1.0000
  Br  Br2       1.0  0.7606134868646565  0.7606134907591959  0.2393865348474235  1.0000
  Br  Br3       1.0  0.760613477132731  0.2393865275727566  0.23938650719150512  1.0000
  Br  Br4       1.0  0.2393865850249106  0.7606134188220421  0.7606134464285312  1.0000
  Br  Br5       1.0  0.23938655117757837  0.7606134471701833  0.2393865227383018  1.0000
  Br  Br6       1.0  0.7606134344496317  0.23938658749512948  0.7606134263715527  1.0000
