data_image0
_chemical_formula_structural       Hg2ReBr6
_chemical_formula_sum              "Hg2 Re1 Br6"
_cell_length_a       7.5911080180346335
_cell_length_b       7.5911078368674
_cell_length_c       7.591108068965344
_cell_angle_alpha    59.999998466809004
_cell_angle_beta     59.99999821191561
_cell_angle_gamma    59.99999853688736

_space_group_name_H-M_alt    "P 1"
_space_group_IT_number       1

loop_
  _space_group_symop_operation_xyz
  'x, y, z'

loop_
  _atom_site_type_symbol
  _atom_site_label
  _atom_site_symmetry_multiplicity
  _atom_site_fract_x
  _atom_site_fract_y
  _atom_site_fract_z
  _atom_site_occupancy
  Hg  Hg1       1.0  0.24999998735611123  0.2500000692897567  0.2499999816323222  1.0000
  Hg  Hg2       1.0  0.749999997518228  0.7500000239423378  0.7499999941062019  1.0000
  Re  Re1       1.0  7.7898843707884e-08  6.292237164026111e-08  0.9999998162989476  1.0000
  Br  Br1       1.0  0.23325076092185126  0.2332506518598975  0.7667492400062847  1.0000
  Br  Br2       1.0  0.766749195346525  0.7667492396979289  0.23325072836059724  1.0000
  Br  Br3       1.0  0.7667491418158123  0.23325075993371078  0.23325081614857973  1.0000
  Br  Br4       1.0  0.23325060968087374  0.7667493671796607  0.7667493581379403  1.0000
  Br  Br5       1.0  0.23325089129136323  0.766749186477895  0.23325074288814832  1.0000
  Br  Br6       1.0  0.766749354021958  0.23325065022453048  0.7667492914929311  1.0000
