data_image0
_chemical_formula_structural       Hg2ReF6
_chemical_formula_sum              "Hg2 Re1 F6"
_cell_length_a       7.263731531112562
_cell_length_b       7.263732833584766
_cell_length_c       7.263732519544069
_cell_angle_alpha    59.999995789410505
_cell_angle_beta     59.999992096003034
_cell_angle_gamma    60.00000237128712

_space_group_name_H-M_alt    "P 1"
_space_group_IT_number       1

loop_
  _space_group_symop_operation_xyz
  'x, y, z'

loop_
  _atom_site_type_symbol
  _atom_site_label
  _atom_site_symmetry_multiplicity
  _atom_site_fract_x
  _atom_site_fract_y
  _atom_site_fract_z
  _atom_site_occupancy
  Hg  Hg1       1.0  0.25000003395137343  0.2499998106709549  0.2500000248396945  1.0000
  Hg  Hg2       1.0  0.7499996760483604  0.7500001705288023  0.7499999126571634  1.0000
  Re  Re1       1.0  2.517810476340061e-07  0.9999999123223218  0.9999997912916664  1.0000
  F   F1        1.0  0.18445033058081645  0.18445017114539777  0.8155497489837252  1.0000
  F   F2        1.0  0.8155497007601433  0.815549742609975  0.18445036443929536  1.0000
  F   F3        1.0  0.8155497159124339  0.18445024122148268  0.18445025513498003  1.0000
  F   F4        1.0  0.18445029239875224  0.8155498799253507  0.8155498542161603  1.0000
  F   F5        1.0  0.18445023779355504  0.8155498177445506  0.184450211778254  1.0000
  F   F6        1.0  0.8155497284972333  0.18445020054961095  0.81554982270224  1.0000
