data_image0
_chemical_formula_structural       Hg2RuCl6
_chemical_formula_sum              "Hg2 Ru1 Cl6"
_cell_length_a       7.328597130899197
_cell_length_b       7.3285959609904925
_cell_length_c       7.328597187580345
_cell_angle_alpha    59.99999601356625
_cell_angle_beta     59.99999718142583
_cell_angle_gamma    59.999996927511404

_space_group_name_H-M_alt    "P 1"
_space_group_IT_number       1

loop_
  _space_group_symop_operation_xyz
  'x, y, z'

loop_
  _atom_site_type_symbol
  _atom_site_label
  _atom_site_symmetry_multiplicity
  _atom_site_fract_x
  _atom_site_fract_y
  _atom_site_fract_z
  _atom_site_occupancy
  Hg  Hg1       1.0  0.25000004118074987  0.2500000217863505  0.24999997154417902  1.0000
  Hg  Hg2       1.0  0.7500000171982353  0.7499999684302405  0.7499999603237282  1.0000
  Ru  Ru1       1.0  1.4966929429792843e-07  0.9999998629627306  2.161003552761865e-07  1.0000
  Cl  Cl1       1.0  0.22534095536243576  0.22534101878575968  0.774659180731797  1.0000
  Cl  Cl2       1.0  0.7746590112324896  0.7746590198952441  0.22534118760929306  1.0000
  Cl  Cl3       1.0  0.7746589884846682  0.2253409804951696  0.2253410177964487  1.0000
  Cl  Cl4       1.0  0.22534116196509982  0.774658946216338  0.774658710120657  1.0000
  Cl  Cl5       1.0  0.22534092665447727  0.7746590565827778  0.2253409458711083  1.0000
  Cl  Cl6       1.0  0.7746587966112062  0.22534104560328164  0.7746587973748468  1.0000
