data_image0
_chemical_formula_structural       Hg2RhCl6
_chemical_formula_sum              "Hg2 Rh1 Cl6"
_cell_length_a       7.070972111341284
_cell_length_b       7.070972056158543
_cell_length_c       7.07097089178974
_cell_angle_alpha    60.00000449960239
_cell_angle_beta     60.000002461436495
_cell_angle_gamma    59.999997373075296

_space_group_name_H-M_alt    "P 1"
_space_group_IT_number       1

loop_
  _space_group_symop_operation_xyz
  'x, y, z'

loop_
  _atom_site_type_symbol
  _atom_site_label
  _atom_site_symmetry_multiplicity
  _atom_site_fract_x
  _atom_site_fract_y
  _atom_site_fract_z
  _atom_site_occupancy
  Hg  Hg1       1.0  0.25000002891783246  0.2500000473635087  0.2499999502778371  1.0000
  Hg  Hg2       1.0  0.7499999986556606  0.749999994864223  0.7499999755667494  1.0000
  Rh  Rh1       1.0  2.619330287259547e-08  5.369429940979756e-08  1.2976415143059183e-07  1.0000
  Cl  Cl1       1.0  0.2345429787558205  0.23454309320420563  0.7654570624046315  1.0000
  Cl  Cl2       1.0  0.7654568758991698  0.7654569680763529  0.23454314260810818  1.0000
  Cl  Cl3       1.0  0.7654569291976214  0.2345429924757635  0.23454303402427673  1.0000
  Cl  Cl4       1.0  0.23454317875879022  0.7654569163822487  0.7654568037608402  1.0000
  Cl  Cl5       1.0  0.23454313442598518  0.7654569103812938  0.23454302692650794  1.0000
  Cl  Cl6       1.0  0.7654568621712128  0.2345430435106546  0.765456877962841  1.0000
