data_image0
_chemical_formula_structural       Hg2ReI6
_chemical_formula_sum              "Hg2 Re1 I6"
_cell_length_a       7.998596849150541
_cell_length_b       7.998596809659945
_cell_length_c       7.998596905797192
_cell_angle_alpha    59.999999603502125
_cell_angle_beta     59.999999599676315
_cell_angle_gamma    60.000000367908676

_space_group_name_H-M_alt    "P 1"
_space_group_IT_number       1

loop_
  _space_group_symop_operation_xyz
  'x, y, z'

loop_
  _atom_site_type_symbol
  _atom_site_label
  _atom_site_symmetry_multiplicity
  _atom_site_fract_x
  _atom_site_fract_y
  _atom_site_fract_z
  _atom_site_occupancy
  Hg  Hg1       1.0  0.2500000010921449  0.24999999412060123  0.2500000029697976  1.0000
  Hg  Hg2       1.0  0.7500000004617231  0.7500000037985989  0.7499999983481318  1.0000
  Re  Re1       1.0  3.820486696749787e-09  1.5311997152785974e-09  3.108007713122186e-08  1.0000
  I   I1        1.0  0.24081792853656703  0.24081792131504928  0.7591820765496404  1.0000
  I   I2        1.0  0.7591820691092434  0.7591820796665502  0.24081792394089868  1.0000
  I   I3        1.0  0.7591820634459236  0.24081793912884458  0.24081793368079596  1.0000
  I   I4        1.0  0.24081795076534607  0.7591820511343572  0.7591820463831426  1.0000
  I   I5        1.0  0.24081793764222614  0.7591820584586598  0.24081794132319848  1.0000
  I   I6        1.0  0.7591820453921542  0.24081795171013745  0.7591820468768257  1.0000
