data_image0
_chemical_formula_structural       Hg2RhBr6
_chemical_formula_sum              "Hg2 Rh1 Br6"
_cell_length_a       7.274561017641374
_cell_length_b       7.274560980239966
_cell_length_c       7.274561002085113
_cell_angle_alpha    60.000000245974235
_cell_angle_beta     59.99999981891125
_cell_angle_gamma    60.00000044834265

_space_group_name_H-M_alt    "P 1"
_space_group_IT_number       1

loop_
  _space_group_symop_operation_xyz
  'x, y, z'

loop_
  _atom_site_type_symbol
  _atom_site_label
  _atom_site_symmetry_multiplicity
  _atom_site_fract_x
  _atom_site_fract_y
  _atom_site_fract_z
  _atom_site_occupancy
  Hg  Hg1       1.0  0.24999999662965974  0.25000001579919995  0.25000003505847834  1.0000
  Hg  Hg2       1.0  0.7499999835727679  0.7499999901552092  0.7499999761202882  1.0000
  Rh  Rh1       1.0  0.9999999760307718  0.9999999528592081  0.99999996682234  1.0000
  Br  Br1       1.0  0.24153650878138058  0.24153652210518348  0.7584634844407295  1.0000
  Br  Br2       1.0  0.7584634864441175  0.7584635006852226  0.24153648331543556  1.0000
  Br  Br3       1.0  0.7584634652008762  0.24153653689803672  0.24153650576357966  1.0000
  Br  Br4       1.0  0.24153650918045885  0.7584635246151628  0.7584635176619801  1.0000
  Br  Br5       1.0  0.24153656962938652  0.758463461490141  0.24153651008194232  1.0000
  Br  Br6       1.0  0.7584635074321747  0.24153648722187931  0.7584635211534  1.0000
