data_image0
_chemical_formula_structural       Hg2RhI6
_chemical_formula_sum              "Hg2 Rh1 I6"
_cell_length_a       7.670895574874591
_cell_length_b       7.6708956051600055
_cell_length_c       7.670895611704334
_cell_angle_alpha    59.99999749169883
_cell_angle_beta     59.999999653057216
_cell_angle_gamma    60.000001641194935

_space_group_name_H-M_alt    "P 1"
_space_group_IT_number       1

loop_
  _space_group_symop_operation_xyz
  'x, y, z'

loop_
  _atom_site_type_symbol
  _atom_site_label
  _atom_site_symmetry_multiplicity
  _atom_site_fract_x
  _atom_site_fract_y
  _atom_site_fract_z
  _atom_site_occupancy
  Hg  Hg1       1.0  0.24999997536266808  0.24999997331339555  0.2500000394122663  1.0000
  Hg  Hg2       1.0  0.7499999811736  0.7500000572488768  0.7499999907525635  1.0000
  Rh  Rh1       1.0  0.9999999582011581  7.983062246609705e-09  2.5679735665288802e-09  1.0000
  I   I1        1.0  0.24699500502978144  0.24699493972953723  0.7530050419719585  1.0000
  I   I2        1.0  0.7530050105341508  0.7530049950359793  0.24699497398670045  1.0000
  I   I3        1.0  0.7530049327381463  0.24699506700823812  0.24699504168786648  1.0000
  I   I4        1.0  0.24699506168891097  0.7530049763269376  0.7530049188217396  1.0000
  I   I5        1.0  0.24699514627778485  0.7530048880103913  0.24699508865533937  1.0000
  I   I6        1.0  0.7530049211498707  0.24699508986366758  0.7530049032825034  1.0000
