data_image0
_chemical_formula_structural       Hg2ReCl6
_chemical_formula_sum              "Hg2 Re1 Cl6"
_cell_length_a       7.480238576467091
_cell_length_b       7.480238833941598
_cell_length_c       7.480238696887278
_cell_angle_alpha    59.99999787119681
_cell_angle_beta     59.99999895283817
_cell_angle_gamma    60.00000583210836

_space_group_name_H-M_alt    "P 1"
_space_group_IT_number       1

loop_
  _space_group_symop_operation_xyz
  'x, y, z'

loop_
  _atom_site_type_symbol
  _atom_site_label
  _atom_site_symmetry_multiplicity
  _atom_site_fract_x
  _atom_site_fract_y
  _atom_site_fract_z
  _atom_site_occupancy
  Hg  Hg1       1.0  0.24999992703188642  0.2499999846817843  0.24999994329490216  1.0000
  Hg  Hg2       1.0  0.7500001172407388  0.7499999736930512  0.7500000851295738  1.0000
  Re  Re1       1.0  0.9999998409218728  1.391711029832745e-07  0.9999998147725726  1.0000
  Cl  Cl1       1.0  0.2223428521513649  0.22234315508719493  0.777656991336483  1.0000
  Cl  Cl2       1.0  0.7776570829380887  0.7776570243241037  0.22234284881262553  1.0000
  Cl  Cl3       1.0  0.7776568180862424  0.2223432941369624  0.2223430952169607  1.0000
  Cl  Cl4       1.0  0.22234313585633578  0.7776567870359022  0.7776569704477517  1.0000
  Cl  Cl5       1.0  0.22234331963007284  0.7776565870481225  0.22234332503078671  1.0000
  Cl  Cl6       1.0  0.7776569192438518  0.22234304222797918  0.7776570420241268  1.0000
