data_image0
_chemical_formula_structural       Hg2SeF6
_chemical_formula_sum              "Hg2 Se1 F6"
_cell_length_a       5.463999586915785
_cell_length_b       5.4639995103922345
_cell_length_c       5.463999614835579
_cell_angle_alpha    59.999999223196674
_cell_angle_beta     59.99999931290796
_cell_angle_gamma    59.999999791826276

_space_group_name_H-M_alt    "P 1"
_space_group_IT_number       1

loop_
  _space_group_symop_operation_xyz
  'x, y, z'

loop_
  _atom_site_type_symbol
  _atom_site_label
  _atom_site_symmetry_multiplicity
  _atom_site_fract_x
  _atom_site_fract_y
  _atom_site_fract_z
  _atom_site_occupancy
  Hg  Hg1       1.0  0.2500000239838242  0.2499999969409267  0.24999995215517706  1.0000
  Hg  Hg2       1.0  0.7500000009750282  0.7499999818568575  0.7500000483400932  1.0000
  Se  Se1       1.0  2.7941528695881673e-08  4.931257287002779e-08  0.9999995752089395  1.0000
  F   F1        1.0  0.2511441102264725  0.25114409810973204  0.7488559559148503  1.0000
  F   F2        1.0  0.7488558654015869  0.7488558448243625  0.2511441384221745  1.0000
  F   F3        1.0  0.7488557599881336  0.25114426014526653  0.2511442307450362  1.0000
  F   F4        1.0  0.2511440798949361  0.7488558934880021  0.7488559231134392  1.0000
  F   F5        1.0  0.2511443102503171  0.7488557364252689  0.2511442499918558  1.0000
  F   F6        1.0  0.74885582415273  0.2511441549547733  0.7488559096951778  1.0000
