data_image0
_chemical_formula_structural       Hg2SrBr6
_chemical_formula_sum              "Hg2 Sr1 Br6"
_cell_length_a       7.912238481368149
_cell_length_b       7.912238621138428
_cell_length_c       7.912238581040027
_cell_angle_alpha    60.000000338786954
_cell_angle_beta     59.99999875017429
_cell_angle_gamma    59.99999731048723

_space_group_name_H-M_alt    "P 1"
_space_group_IT_number       1

loop_
  _space_group_symop_operation_xyz
  'x, y, z'

loop_
  _atom_site_type_symbol
  _atom_site_label
  _atom_site_symmetry_multiplicity
  _atom_site_fract_x
  _atom_site_fract_y
  _atom_site_fract_z
  _atom_site_occupancy
  Hg  Hg1       1.0  0.2499999950566685  0.2500000019803603  0.25000000522050825  1.0000
  Hg  Hg2       1.0  0.7500000168490415  0.7500000028452561  0.7499999937867302  1.0000
  Sr  Sr1       1.0  0.9999999760453349  6.191648962124923e-09  7.586634376860106e-08  1.0000
  Br  Br1       1.0  0.2684296924209992  0.26842966500373644  0.7315703286603255  1.0000
  Br  Br2       1.0  0.7315702868622607  0.7315703413697928  0.26842965555142606  1.0000
  Br  Br3       1.0  0.7315703048352058  0.2684296731416353  0.26842963734658726  1.0000
  Br  Br4       1.0  0.2684297133354904  0.7315703347798045  0.7315703089533832  1.0000
  Br  Br5       1.0  0.268429695690861  0.7315703293274081  0.2684296464098466  1.0000
  Br  Br6       1.0  0.7315703168345357  0.2684296429920572  0.731570354638111  1.0000
