data_image0
_chemical_formula_structural       Hg2SrI6
_chemical_formula_sum              "Hg2 Sr1 I6"
_cell_length_a       9.627326783700052
_cell_length_b       9.62732624206551
_cell_length_c       9.627326377667162
_cell_angle_alpha    60.00000195623734
_cell_angle_beta     59.99999773074821
_cell_angle_gamma    60.00000059011594

_space_group_name_H-M_alt    "P 1"
_space_group_IT_number       1

loop_
  _space_group_symop_operation_xyz
  'x, y, z'

loop_
  _atom_site_type_symbol
  _atom_site_label
  _atom_site_symmetry_multiplicity
  _atom_site_fract_x
  _atom_site_fract_y
  _atom_site_fract_z
  _atom_site_occupancy
  Hg  Hg1       1.0  0.24999990381060563  0.2499999517356928  0.25000010323970256  1.0000
  Hg  Hg2       1.0  0.7500000717814814  0.7500000371252006  0.7499999035529102  1.0000
  Sr  Sr1       1.0  0.999999975149284  1.5011426409246428e-07  1.3680054577805455e-07  1.0000
  I   I1        1.0  0.24085958789104872  0.24086110924789061  0.7591395829342188  1.0000
  I   I2        1.0  0.7591403880295118  0.7591387994672542  0.24086042117992082  1.0000
  I   I3        1.0  0.7591402574531765  0.2408605798260401  0.2408598950394299  1.0000
  I   I4        1.0  0.24085979070772348  0.7591394611931926  0.759139937208928  1.0000
  I   I5        1.0  0.2408599019324856  0.7591394296083837  0.2408607216071179  1.0000
  I   I6        1.0  0.7591401167299021  0.24086050200554684  0.7591392600738144  1.0000
