data_image0
_chemical_formula_structural       Hg2SnCl6
_chemical_formula_sum              "Hg2 Sn1 Cl6"
_cell_length_a       7.5285715781086076
_cell_length_b       7.528571488861814
_cell_length_c       7.528572072843901
_cell_angle_alpha    59.999998647736675
_cell_angle_beta     59.999996024170095
_cell_angle_gamma    60.00000322462832

_space_group_name_H-M_alt    "P 1"
_space_group_IT_number       1

loop_
  _space_group_symop_operation_xyz
  'x, y, z'

loop_
  _atom_site_type_symbol
  _atom_site_label
  _atom_site_symmetry_multiplicity
  _atom_site_fract_x
  _atom_site_fract_y
  _atom_site_fract_z
  _atom_site_occupancy
  Hg  Hg1       1.0  0.25000004540545645  0.24999997993366177  0.25000002521406084  1.0000
  Hg  Hg2       1.0  0.7499999626837393  0.7500000048728063  0.7500000089997352  1.0000
  Sn  Sn1       1.0  7.0973267329898154e-09  0.9999998958850712  2.1454294135254108e-07  1.0000
  Cl  Cl1       1.0  0.23134389141228673  0.23134399071374073  0.7686560774547235  1.0000
  Cl  Cl2       1.0  0.7686560827613935  0.7686561372507574  0.23134388221372004  1.0000
  Cl  Cl3       1.0  0.7686558779472121  0.23134411178616504  0.23134413439072024  1.0000
  Cl  Cl4       1.0  0.2313441796103497  0.7686558258432239  0.7686557552239329  1.0000
  Cl  Cl5       1.0  0.2313441657674692  0.7686558782368035  0.23134416466253818  1.0000
  Cl  Cl6       1.0  0.7686557971755268  0.23134416838790114  0.7686557522968439  1.0000
