data_image0
_chemical_formula_structural       Hg2SF6
_chemical_formula_sum              "Hg2 S1 F6"
_cell_length_a       5.419263489006145
_cell_length_b       5.41926349175023
_cell_length_c       5.419263447114839
_cell_angle_alpha    60.00000001233528
_cell_angle_beta     59.99999978058355
_cell_angle_gamma    59.99999976806141

_space_group_name_H-M_alt    "P 1"
_space_group_IT_number       1

loop_
  _space_group_symop_operation_xyz
  'x, y, z'

loop_
  _atom_site_type_symbol
  _atom_site_label
  _atom_site_symmetry_multiplicity
  _atom_site_fract_x
  _atom_site_fract_y
  _atom_site_fract_z
  _atom_site_occupancy
  Hg  Hg1       1.0  0.24999998760896838  0.2500000196895818  0.24999999430512512  1.0000
  Hg  Hg2       1.0  0.7500000069925797  0.7499999777093218  0.7500000181196725  1.0000
  S   S1        1.0  2.6063626758891007e-08  1.1299919862756257e-08  0.9999999942351111  1.0000
  F   F1        1.0  0.2401892134521476  0.24018919360624186  0.7598107956685499  1.0000
  F   F2        1.0  0.7598107794064192  0.7598107834528058  0.24018921857132036  1.0000
  F   F3        1.0  0.7598107900735095  0.24018920170935776  0.24018919435568756  1.0000
  F   F4        1.0  0.24018919850141457  0.7598108137694177  0.7598108138877554  1.0000
  F   F5        1.0  0.24018921170157786  0.7598108008088703  0.2401891663835245  1.0000
  F   F6        1.0  0.7598107921762317  0.24018919433004932  0.7598108074730195  1.0000
