data_image0
_chemical_formula_structural       Hg2SiI6
_chemical_formula_sum              "Hg2 Si1 I6"
_cell_length_a       7.930584609159699
_cell_length_b       7.9305847786495836
_cell_length_c       7.930584593993026
_cell_angle_alpha    60.000001555827325
_cell_angle_beta     60.00000011833034
_cell_angle_gamma    59.999999103311815

_space_group_name_H-M_alt    "P 1"
_space_group_IT_number       1

loop_
  _space_group_symop_operation_xyz
  'x, y, z'

loop_
  _atom_site_type_symbol
  _atom_site_label
  _atom_site_symmetry_multiplicity
  _atom_site_fract_x
  _atom_site_fract_y
  _atom_site_fract_z
  _atom_site_occupancy
  Hg  Hg1       1.0  0.24999996621308349  0.2499999940296436  0.2500000067143961  1.0000
  Hg  Hg2       1.0  0.7500000610940465  0.7500000145198801  0.749999965572313  1.0000
  Si  Si1       1.0  0.9999999627165476  4.6329933407113575e-08  9.347111764172675e-09  1.0000
  I   I1        1.0  0.23950331276744688  0.23950348295549762  0.7604965527190299  1.0000
  I   I2        1.0  0.7604966835370311  0.7604965225053644  0.239503410133573  1.0000
  I   I3        1.0  0.7604966523730535  0.23950334196007286  0.23950332623650958  1.0000
  I   I4        1.0  0.2395033221796058  0.7604966588677966  0.7604966712444977  1.0000
  I   I5        1.0  0.23950338971628762  0.7604966126394679  0.23950338562675844  1.0000
  I   I6        1.0  0.7604966491077348  0.23950332641515754  0.7604966837397722  1.0000
