data_image0
_chemical_formula_structural       Hg2ScCl6
_chemical_formula_sum              "Hg2 Sc1 Cl6"
_cell_length_a       7.389699000860231
_cell_length_b       7.389699092175003
_cell_length_c       7.3896983280058715
_cell_angle_alpha    60.00000265033288
_cell_angle_beta     60.00000258227642
_cell_angle_gamma    60.00000450005027

_space_group_name_H-M_alt    "P 1"
_space_group_IT_number       1

loop_
  _space_group_symop_operation_xyz
  'x, y, z'

loop_
  _atom_site_type_symbol
  _atom_site_label
  _atom_site_symmetry_multiplicity
  _atom_site_fract_x
  _atom_site_fract_y
  _atom_site_fract_z
  _atom_site_occupancy
  Hg  Hg1       1.0  0.2500000211506395  0.24999998244050328  0.24999997644985947  1.0000
  Hg  Hg2       1.0  0.7499999976014103  0.7500000136162136  0.7500000062618876  1.0000
  Sc  Sc1       1.0  2.695928828222929e-08  0.9999999519363402  0.9999998156863151  1.0000
  Cl  Cl1       1.0  0.23787774896091077  0.23787756722779113  0.7621223021272847  1.0000
  Cl  Cl2       1.0  0.7621223637058467  0.7621223111558245  0.23787775065277383  1.0000
  Cl  Cl3       1.0  0.7621221570218054  0.23787791400350977  0.23787765846697237  1.0000
  Cl  Cl4       1.0  0.23787762302889137  0.7621223903235826  0.7621224599678994  1.0000
  Cl  Cl5       1.0  0.23787766080298334  0.762122269748434  0.23787770164256314  1.0000
  Cl  Cl6       1.0  0.7621223803479208  0.2378776169220186  0.7621222947917147  1.0000
