data_image0
_chemical_formula_structural       Hg2SrCl6
_chemical_formula_sum              "Hg2 Sr1 Cl6"
_cell_length_a       7.5004040616732395
_cell_length_b       7.500404133472068
_cell_length_c       7.500403942777229
_cell_angle_alpha    60.00000037345056
_cell_angle_beta     59.99999812102521
_cell_angle_gamma    59.99999564331118

_space_group_name_H-M_alt    "P 1"
_space_group_IT_number       1

loop_
  _space_group_symop_operation_xyz
  'x, y, z'

loop_
  _atom_site_type_symbol
  _atom_site_label
  _atom_site_symmetry_multiplicity
  _atom_site_fract_x
  _atom_site_fract_y
  _atom_site_fract_z
  _atom_site_occupancy
  Hg  Hg1       1.0  0.25000004874461706  0.24999991773793695  0.2500000071495155  1.0000
  Hg  Hg2       1.0  0.7500000797196181  0.7499999850863508  0.7499999747674543  1.0000
  Sr  Sr1       1.0  0.999999938622086  0.9999999624431837  3.746801265257819e-08  1.0000
  Cl  Cl1       1.0  0.26343969117077837  0.2634397132987403  0.7365602996786459  1.0000
  Cl  Cl2       1.0  0.7365602857962891  0.7365603299554013  0.26343965710696793  1.0000
  Cl  Cl3       1.0  0.7365602818867216  0.2634397215246468  0.2634397098565662  1.0000
  Cl  Cl4       1.0  0.2634397065559996  0.7365603658179343  0.7365602364794005  1.0000
  Cl  Cl5       1.0  0.2634396652874137  0.7365603346367896  0.26343975451974383  1.0000
  Cl  Cl6       1.0  0.7365603160500895  0.26343966779472233  0.7365603178200585  1.0000
