data_image0
_chemical_formula_structural       Hg2ScBr6
_chemical_formula_sum              "Hg2 Sc1 Br6"
_cell_length_a       7.8731700347521345
_cell_length_b       7.873169905434308
_cell_length_c       7.873169980406546
_cell_angle_alpha    59.99999762233647
_cell_angle_beta     60.00000104760813
_cell_angle_gamma    59.99999996392685

_space_group_name_H-M_alt    "P 1"
_space_group_IT_number       1

loop_
  _space_group_symop_operation_xyz
  'x, y, z'

loop_
  _atom_site_type_symbol
  _atom_site_label
  _atom_site_symmetry_multiplicity
  _atom_site_fract_x
  _atom_site_fract_y
  _atom_site_fract_z
  _atom_site_occupancy
  Hg  Hg1       1.0  0.24999998465571566  0.2500000531386428  0.2499999685666801  1.0000
  Hg  Hg2       1.0  0.7500000037029525  0.7499999354105175  0.7500000245882575  1.0000
  Sc  Sc1       1.0  7.406837266042049e-09  2.177830438220941e-08  0.9999999688956553  1.0000
  Br  Br1       1.0  0.23801750420479104  0.2380174800645412  0.7619825093874756  1.0000
  Br  Br2       1.0  0.7619825451141938  0.7619825675971583  0.23801744151294368  1.0000
  Br  Br3       1.0  0.7619824325546914  0.23801755198215113  0.23801755497024787  1.0000
  Br  Br4       1.0  0.23801749764215677  0.7619824614564972  0.761982496735357  1.0000
  Br  Br5       1.0  0.23801754808400244  0.7619824115510738  0.23801754838825587  1.0000
  Br  Br6       1.0  0.7619824659343198  0.2380175132187676  0.7619824930396532  1.0000
