data_image0
_chemical_formula_structural       Hg2ScI6
_chemical_formula_sum              "Hg2 Sc1 I6"
_cell_length_a       8.95496052327931
_cell_length_b       8.95495927337204
_cell_length_c       8.954960037009108
_cell_angle_alpha    60.00000510329555
_cell_angle_beta     59.99999070663258
_cell_angle_gamma    60.0000028285354

_space_group_name_H-M_alt    "P 1"
_space_group_IT_number       1

loop_
  _space_group_symop_operation_xyz
  'x, y, z'

loop_
  _atom_site_type_symbol
  _atom_site_label
  _atom_site_symmetry_multiplicity
  _atom_site_fract_x
  _atom_site_fract_y
  _atom_site_fract_z
  _atom_site_occupancy
  Hg  Hg1       1.0  0.2500000219167752  0.25000002136313604  0.2500000652323425  1.0000
  Hg  Hg2       1.0  0.74999993601171  0.7499999929704091  0.7499999599992719  1.0000
  Sc  Sc1       1.0  0.9999998469706447  6.838360405419413e-08  9.257437310107858e-08  1.0000
  I   I1        1.0  0.22756663151977277  0.2275667174947936  0.7724334398694869  1.0000
  I   I2        1.0  0.7724334767517901  0.7724334144585673  0.2275665172659496  1.0000
  I   I3        1.0  0.7724335115607406  0.2275665498602702  0.2275664291498109  1.0000
  I   I4        1.0  0.22756648072941757  0.7724333304413947  0.7724335186131456  1.0000
  I   I5        1.0  0.2275666324243056  0.7724332901195917  0.22756678347352258  1.0000
  I   I6        1.0  0.7724334729466683  0.2275666106971696  0.7724331711936409  1.0000
