data_image0
_chemical_formula_structural       Hg2SeI6
_chemical_formula_sum              "Hg2 Se1 I6"
_cell_length_a       7.893286027405479
_cell_length_b       7.893286101273516
_cell_length_c       7.89328622154031
_cell_angle_alpha    60.00000122899652
_cell_angle_beta     60.00000135128178
_cell_angle_gamma    59.99999980462136

_space_group_name_H-M_alt    "P 1"
_space_group_IT_number       1

loop_
  _space_group_symop_operation_xyz
  'x, y, z'

loop_
  _atom_site_type_symbol
  _atom_site_label
  _atom_site_symmetry_multiplicity
  _atom_site_fract_x
  _atom_site_fract_y
  _atom_site_fract_z
  _atom_site_occupancy
  Hg  Hg1       1.0  0.2500000008554856  0.2500000003683386  0.2500000041213023  1.0000
  Hg  Hg2       1.0  0.7500000428479001  0.7499999855887286  0.7499999695757426  1.0000
  Se  Se1       1.0  0.9999999149014162  0.9999999875869718  1.4549519222917846e-08  1.0000
  I   I1        1.0  0.2598986507368174  0.2598986502170487  0.7401013645855039  1.0000
  I   I2        1.0  0.7401013917089946  0.7401014272861073  0.25989858297077634  1.0000
  I   I3        1.0  0.7401013630589734  0.2598986968454997  0.25989855526294475  1.0000
  I   I4        1.0  0.25989863253131124  0.7401013061794828  0.7401014187538991  1.0000
  I   I5        1.0  0.2598986575958082  0.740101348774255  0.2598986754803476  1.0000
  I   I6        1.0  0.740101341645396  0.2598985906339551  0.7401014197361823  1.0000
