data_image0
_chemical_formula_structural       Hg2SBr6
_chemical_formula_sum              "Hg2 S1 Br6"
_cell_length_a       7.345120185669117
_cell_length_b       7.3451201853019406
_cell_length_c       7.3451201982683685
_cell_angle_alpha    59.999999773622704
_cell_angle_beta     59.99999905908461
_cell_angle_gamma    59.99999922313594

_space_group_name_H-M_alt    "P 1"
_space_group_IT_number       1

loop_
  _space_group_symop_operation_xyz
  'x, y, z'

loop_
  _atom_site_type_symbol
  _atom_site_label
  _atom_site_symmetry_multiplicity
  _atom_site_fract_x
  _atom_site_fract_y
  _atom_site_fract_z
  _atom_site_occupancy
  Hg  Hg1       1.0  0.24999998997528958  0.2499999901962104  0.2500000134900045  1.0000
  Hg  Hg2       1.0  0.7499999901392658  0.7500000372856948  0.7499999779545093  1.0000
  S   S1        1.0  0.999999972926173  0.999999963316615  3.732439859837477e-08  1.0000
  Br  Br1       1.0  0.24626877738658667  0.24626871207109866  0.7537312630788018  1.0000
  Br  Br2       1.0  0.753731293210284  0.7537312420440359  0.24626875384414185  1.0000
  Br  Br3       1.0  0.7537313084359702  0.24626872380233442  0.24626873275740027  1.0000
  Br  Br4       1.0  0.2462687146965068  0.7537312736658919  0.7537313011971238  1.0000
  Br  Br5       1.0  0.24626869068681145  0.7537312979481737  0.2462687028478379  1.0000
  Br  Br6       1.0  0.7537312704512424  0.24626876288226365  0.7537312187840479  1.0000
