data_image0
_chemical_formula_structural       Hg2SBr6
_chemical_formula_sum              "Hg2 S1 Br6"
_cell_length_a       7.34586118918497
_cell_length_b       7.345861246321727
_cell_length_c       7.345861155520558
_cell_angle_alpha    59.9999992962252
_cell_angle_beta     60.00000044716963
_cell_angle_gamma    59.999999546061844

_space_group_name_H-M_alt    "P 1"
_space_group_IT_number       1

loop_
  _space_group_symop_operation_xyz
  'x, y, z'

loop_
  _atom_site_type_symbol
  _atom_site_label
  _atom_site_symmetry_multiplicity
  _atom_site_fract_x
  _atom_site_fract_y
  _atom_site_fract_z
  _atom_site_occupancy
  Hg  Hg1       1.0  0.2500000294474665  0.2500000048044464  0.24999992854401862  1.0000
  Hg  Hg2       1.0  0.7499999713865917  0.7499999927389774  0.7500000686729335  1.0000
  S   S1        1.0  0.9999999461438654  0.9999999116353059  3.299371308174832e-08  1.0000
  Br  Br1       1.0  0.24619561145095545  0.2461956527517972  0.7538043833238367  1.0000
  Br  Br2       1.0  0.7538044635950267  0.7538044098147035  0.2461955728631409  1.0000
  Br  Br3       1.0  0.7538044459444392  0.24619558612264517  0.24619558188379811  1.0000
  Br  Br4       1.0  0.24619552989710305  0.7538044581040132  0.7538044603015361  1.0000
  Br  Br5       1.0  0.2461955659481505  0.7538044067196391  0.24619558303879785  1.0000
  Br  Br6       1.0  0.7538044388715294  0.24619557415120114  0.7538044014632842  1.0000
