data_image0
_chemical_formula_structural       Hg2SeBr6
_chemical_formula_sum              "Hg2 Se1 Br6"
_cell_length_a       7.748176327877348
_cell_length_b       7.7481762444199
_cell_length_c       7.748176483905318
_cell_angle_alpha    59.99999752115203
_cell_angle_beta     59.999998718124544
_cell_angle_gamma    60.000000669541144

_space_group_name_H-M_alt    "P 1"
_space_group_IT_number       1

loop_
  _space_group_symop_operation_xyz
  'x, y, z'

loop_
  _atom_site_type_symbol
  _atom_site_label
  _atom_site_symmetry_multiplicity
  _atom_site_fract_x
  _atom_site_fract_y
  _atom_site_fract_z
  _atom_site_occupancy
  Hg  Hg1       1.0  0.24999997170633512  0.25000001006224437  0.25000004108618945  1.0000
  Hg  Hg2       1.0  0.750000011130172  0.7499999969922899  0.7499999731125909  1.0000
  Se  Se1       1.0  4.38712290983288e-11  7.587302189514327e-08  0.9999999955978353  1.0000
  Br  Br1       1.0  0.2370061056151968  0.23700612634042945  0.7629938901316119  1.0000
  Br  Br2       1.0  0.7629939157440956  0.7629938143252118  0.2370061134783241  1.0000
  Br  Br3       1.0  0.7629938236989837  0.23700615643490977  0.23700613571494913  1.0000
  Br  Br4       1.0  0.2370062339695994  0.7629937557783489  0.7629938626759067  1.0000
  Br  Br5       1.0  0.23700614836911152  0.7629938122399529  0.23700614600747522  1.0000
  Br  Br6       1.0  0.7629938008674759  0.2370062374931556  0.7629938559082202  1.0000
