data_image0
_chemical_formula_structural       Hg2SCl6
_chemical_formula_sum              "Hg2 S1 Cl6"
_cell_length_a       7.640127175976189
_cell_length_b       7.64012715018425
_cell_length_c       7.640127837944394
_cell_angle_alpha    60.00000035326847
_cell_angle_beta     59.99999782281654
_cell_angle_gamma    59.9999978535257

_space_group_name_H-M_alt    "P 1"
_space_group_IT_number       1

loop_
  _space_group_symop_operation_xyz
  'x, y, z'

loop_
  _atom_site_type_symbol
  _atom_site_label
  _atom_site_symmetry_multiplicity
  _atom_site_fract_x
  _atom_site_fract_y
  _atom_site_fract_z
  _atom_site_occupancy
  Hg  Hg1       1.0  0.2500000132675555  0.2499999460348006  0.2500000464030318  1.0000
  Hg  Hg2       1.0  0.7500000640577238  0.7500000192482058  0.7500000142587329  1.0000
  S   S1        1.0  3.282304885281907e-08  0.9999999695421902  0.9999999660954143  1.0000
  Cl  Cl1       1.0  0.2159188206540481  0.2159188538411676  0.7840811028285825  1.0000
  Cl  Cl2       1.0  0.7840808188473819  0.7840812188456913  0.21591894372680986  1.0000
  Cl  Cl3       1.0  0.784081343361649  0.21591889570900297  0.21591863061382532  1.0000
  Cl  Cl4       1.0  0.21591880221854515  0.7840811096500642  0.7840813457782446  1.0000
  Cl  Cl5       1.0  0.21591893188719927  0.7840810896742487  0.2159187206091905  1.0000
  Cl  Cl6       1.0  0.7840812008241652  0.21591887721179392  0.7840811649636081  1.0000
