data_image0
_chemical_formula_structural       Hg2SeCl6
_chemical_formula_sum              "Hg2 Se1 Cl6"
_cell_length_a       7.445756483765306
_cell_length_b       7.445756082972884
_cell_length_c       7.445756037943814
_cell_angle_alpha    60.00000068382984
_cell_angle_beta     60.00000013517778
_cell_angle_gamma    60.0000036051631

_space_group_name_H-M_alt    "P 1"
_space_group_IT_number       1

loop_
  _space_group_symop_operation_xyz
  'x, y, z'

loop_
  _atom_site_type_symbol
  _atom_site_label
  _atom_site_symmetry_multiplicity
  _atom_site_fract_x
  _atom_site_fract_y
  _atom_site_fract_z
  _atom_site_occupancy
  Hg  Hg1       1.0  0.25000003092713147  0.24999994867609632  0.24999999030404613  1.0000
  Hg  Hg2       1.0  0.749999972441138  0.7500000302559459  0.7499999967194598  1.0000
  Se  Se1       1.0  2.320124520034583e-07  0.999999950653314  0.9999997716763238  1.0000
  Cl  Cl1       1.0  0.22987989395622838  0.22987968943544773  0.7701201820397255  1.0000
  Cl  Cl2       1.0  0.7701200375879601  0.7701203421330656  0.22987979577492934  1.0000
  Cl  Cl3       1.0  0.7701200100831681  0.22987984954071647  0.22987990221418964  1.0000
  Cl  Cl4       1.0  0.22987978774398407  0.7701203086843105  0.770120265814256  1.0000
  Cl  Cl5       1.0  0.2298800187503524  0.770120055220592  0.22987988244750643  1.0000
  Cl  Cl6       1.0  0.7701200314730605  0.22987982501806256  0.7701201734726232  1.0000
