data_image0
_chemical_formula_structural       Hg2SCl6
_chemical_formula_sum              "Hg2 S1 Cl6"
_cell_length_a       7.6496408355435905
_cell_length_b       7.649640463036577
_cell_length_c       7.649640631087531
_cell_angle_alpha    60.00000050163842
_cell_angle_beta     59.99999532279521
_cell_angle_gamma    60.000002213995785

_space_group_name_H-M_alt    "P 1"
_space_group_IT_number       1

loop_
  _space_group_symop_operation_xyz
  'x, y, z'

loop_
  _atom_site_type_symbol
  _atom_site_label
  _atom_site_symmetry_multiplicity
  _atom_site_fract_x
  _atom_site_fract_y
  _atom_site_fract_z
  _atom_site_occupancy
  Hg  Hg1       1.0  0.24999990706918962  0.2500000658932721  0.25000011833825186  1.0000
  Hg  Hg2       1.0  0.7500000149814217  0.7499999639266757  0.749999966817624  1.0000
  S   S1        1.0  0.99999984866969  4.643041250633644e-08  6.29079631207778e-08  1.0000
  Cl  Cl1       1.0  0.21567114003630009  0.21567151851247082  0.7843283955345136  1.0000
  Cl  Cl2       1.0  0.7843293202616537  0.7843283864256628  0.21567087114512878  1.0000
  Cl  Cl3       1.0  0.7843287264421832  0.21567137134605144  0.2156713279931919  1.0000
  Cl  Cl4       1.0  0.2156711980362472  0.784328451938591  0.7843289507239918  1.0000
  Cl  Cl5       1.0  0.2156710237756383  0.7843287442743642  0.21567141746183344  1.0000
  Cl  Cl6       1.0  0.7843288488098621  0.21567145205467936  0.7843289385992939  1.0000
