data_image0
_chemical_formula_structural       Hg2SnBr6
_chemical_formula_sum              "Hg2 Sn1 Br6"
_cell_length_a       7.561759375260781
_cell_length_b       7.561759248751788
_cell_length_c       7.561759311454901
_cell_angle_alpha    59.99999976790659
_cell_angle_beta     59.99999796565659
_cell_angle_gamma    60.00000023272598

_space_group_name_H-M_alt    "P 1"
_space_group_IT_number       1

loop_
  _space_group_symop_operation_xyz
  'x, y, z'

loop_
  _atom_site_type_symbol
  _atom_site_label
  _atom_site_symmetry_multiplicity
  _atom_site_fract_x
  _atom_site_fract_y
  _atom_site_fract_z
  _atom_site_occupancy
  Hg  Hg1       1.0  0.2500000210281628  0.25000000970964564  0.24999995181109566  1.0000
  Hg  Hg2       1.0  0.7499999821679832  0.7500000015947852  0.7500000141316592  1.0000
  Sn  Sn1       1.0  6.74670359162758e-08  0.9999999854231006  3.888022123880205e-07  1.0000
  Br  Br1       1.0  0.2460308828425484  0.24603086748031064  0.753969128357698  1.0000
  Br  Br2       1.0  0.7539690914645122  0.7539690838968481  0.24603088596056671  1.0000
  Br  Br3       1.0  0.7539692140435469  0.24603080428664306  0.24603075544353442  1.0000
  Br  Br4       1.0  0.2460309839980739  0.7539690256163174  0.7539690702104137  1.0000
  Br  Br5       1.0  0.24603083635056133  0.7539691650822573  0.24603083112257904  1.0000
  Br  Br6       1.0  0.7539689183530452  0.24603106487572865  0.7539689804668949  1.0000
