data_image0
_chemical_formula_structural       Hg2SeI6
_chemical_formula_sum              "Hg2 Se1 I6"
_cell_length_a       7.892305974763581
_cell_length_b       7.892305648558844
_cell_length_c       7.892305786689878
_cell_angle_alpha    60.00000174487107
_cell_angle_beta     59.99999898822213
_cell_angle_gamma    60.00000024587804

_space_group_name_H-M_alt    "P 1"
_space_group_IT_number       1

loop_
  _space_group_symop_operation_xyz
  'x, y, z'

loop_
  _atom_site_type_symbol
  _atom_site_label
  _atom_site_symmetry_multiplicity
  _atom_site_fract_x
  _atom_site_fract_y
  _atom_site_fract_z
  _atom_site_occupancy
  Hg  Hg1       1.0  0.24999993955675945  0.2500000169965194  0.2500000007491584  1.0000
  Hg  Hg2       1.0  0.7500000845663896  0.7499999687430303  0.7500000181225095  1.0000
  Se  Se1       1.0  0.9999999266537161  3.569188763391982e-08  0.9999999123944255  1.0000
  I   I1        1.0  0.2599730979011023  0.2599731596403945  0.7400268688765563  1.0000
  I   I2        1.0  0.7400269084141695  0.740026813684584  0.2599731575039949  1.0000
  I   I3        1.0  0.7400267993344851  0.25997316067192655  0.25997314935717797  1.0000
  I   I4        1.0  0.25997321178329624  0.7400268421376583  0.7400268750844978  1.0000
  I   I5        1.0  0.2599731932673829  0.7400268184669055  0.25997313718770454  1.0000
  I   I6        1.0  0.7400268379048716  0.2599731812390368  0.7400268762444421  1.0000
