data_image0
_chemical_formula_structural       Hg2SeBr6
_chemical_formula_sum              "Hg2 Se1 Br6"
_cell_length_a       7.752831786364499
_cell_length_b       7.752831696769569
_cell_length_c       7.752831778426791
_cell_angle_alpha    59.999999479455276
_cell_angle_beta     59.999998865462615
_cell_angle_gamma    60.00000001493368

_space_group_name_H-M_alt    "P 1"
_space_group_IT_number       1

loop_
  _space_group_symop_operation_xyz
  'x, y, z'

loop_
  _atom_site_type_symbol
  _atom_site_label
  _atom_site_symmetry_multiplicity
  _atom_site_fract_x
  _atom_site_fract_y
  _atom_site_fract_z
  _atom_site_occupancy
  Hg  Hg1       1.0  0.24999994155688904  0.25000002239598845  0.25000003494001916  1.0000
  Hg  Hg2       1.0  0.750000022008684  0.7500000024186773  0.7499999921010452  1.0000
  Se  Se1       1.0  0.9999999817349071  7.26679830419479e-08  1.1752831916584399e-09  1.0000
  Br  Br1       1.0  0.23685457688585002  0.2368545860128454  0.7631454228032346  1.0000
  Br  Br2       1.0  0.763145422456133  0.7631453850907025  0.23685456935023985  1.0000
  Br  Br3       1.0  0.763145396929113  0.23685464930502648  0.2368545983469491  1.0000
  Br  Br4       1.0  0.2368546091370556  0.763145359712252  0.7631453869657826  1.0000
  Br  Br5       1.0  0.2368546071751716  0.7631453663142724  0.23685463997177697  1.0000
  Br  Br6       1.0  0.7631454598373784  0.23685454475920295  0.7631453702889215  1.0000
