data_image0
_chemical_formula_structural       Hg2SiF6
_chemical_formula_sum              "Hg2 Si1 F6"
_cell_length_a       5.396721018979739
_cell_length_b       5.396721449623507
_cell_length_c       5.396721839791971
_cell_angle_alpha    59.99999621150039
_cell_angle_beta     59.99999462061415
_cell_angle_gamma    59.99999777225254

_space_group_name_H-M_alt    "P 1"
_space_group_IT_number       1

loop_
  _space_group_symop_operation_xyz
  'x, y, z'

loop_
  _atom_site_type_symbol
  _atom_site_label
  _atom_site_symmetry_multiplicity
  _atom_site_fract_x
  _atom_site_fract_y
  _atom_site_fract_z
  _atom_site_occupancy
  Hg  Hg1       1.0  0.24999994126516645  0.2500001061200111  0.2500000619724912  1.0000
  Hg  Hg2       1.0  0.7499999608249389  0.749999939366229  0.7500002068389161  1.0000
  Si  Si1       1.0  0.9999999645977479  6.127444818734675e-08  0.9999999574162737  1.0000
  F   F1        1.0  0.22405834871873237  0.22405835668897084  0.775941623997002  1.0000
  F   F2        1.0  0.7759417949349326  0.7759416252534002  0.22405825562232917  1.0000
  F   F3        1.0  0.7759416447293404  0.22405841042734478  0.22405839014573412  1.0000
  F   F4        1.0  0.22405825876619148  0.7759415987481145  0.7759416941438869  1.0000
  F   F5        1.0  0.2240584230646807  0.7759415545648982  0.2240583337390886  1.0000
  F   F6        1.0  0.7759416266194278  0.22405834340878694  0.775941588524947  1.0000
