data_image0
_chemical_formula_structural       Hg2SI6
_chemical_formula_sum              "Hg2 S1 I6"
_cell_length_a       7.705284808304505
_cell_length_b       7.70528470575033
_cell_length_c       7.7052849447986915
_cell_angle_alpha    60.00000095910412
_cell_angle_beta     59.999998732463524
_cell_angle_gamma    60.00000107188093

_space_group_name_H-M_alt    "P 1"
_space_group_IT_number       1

loop_
  _space_group_symop_operation_xyz
  'x, y, z'

loop_
  _atom_site_type_symbol
  _atom_site_label
  _atom_site_symmetry_multiplicity
  _atom_site_fract_x
  _atom_site_fract_y
  _atom_site_fract_z
  _atom_site_occupancy
  Hg  Hg1       1.0  0.25000001465755767  0.24999999360124048  0.24999997595983137  1.0000
  Hg  Hg2       1.0  0.7499999929299604  0.7499999855721831  0.7500000159071469  1.0000
  S   S1        1.0  5.983947650770144e-08  0.9999998744305402  0.9999999848459995  1.0000
  I   I1        1.0  0.26541494598386906  0.2654149497021875  0.7345850684254005  1.0000
  I   I2        1.0  0.7345850879262091  0.7345850898717362  0.2654148995472063  1.0000
  I   I3        1.0  0.7345850154719572  0.26541497310542683  0.2654149623005622  1.0000
  I   I4        1.0  0.2654149117504488  0.7345851077951551  0.7345851058387011  1.0000
  I   I5        1.0  0.26541491165937725  0.7345851087433071  0.2654148948470459  1.0000
  I   I6        1.0  0.7345850606426041  0.2654149133462602  0.7345850893111983  1.0000
