data_image0
_chemical_formula_structural       Hg2SnBr6
_chemical_formula_sum              "Hg2 Sn1 Br6"
_cell_length_a       7.559396634715984
_cell_length_b       7.559396577829889
_cell_length_c       7.559396588252967
_cell_angle_alpha    60.000000911645046
_cell_angle_beta     59.99999966933037
_cell_angle_gamma    60.00000027631216

_space_group_name_H-M_alt    "P 1"
_space_group_IT_number       1

loop_
  _space_group_symop_operation_xyz
  'x, y, z'

loop_
  _atom_site_type_symbol
  _atom_site_label
  _atom_site_symmetry_multiplicity
  _atom_site_fract_x
  _atom_site_fract_y
  _atom_site_fract_z
  _atom_site_occupancy
  Hg  Hg1       1.0  0.2499999772584106  0.2500000080458371  0.2499999877588527  1.0000
  Hg  Hg2       1.0  0.7500000131035551  0.7500000046955662  0.7500000209647816  1.0000
  Sn  Sn1       1.0  2.570548463765696e-08  0.9999999870386997  0.9999997885850868  1.0000
  Br  Br1       1.0  0.24607018301650438  0.24607009234145605  0.7539298620164036  1.0000
  Br  Br2       1.0  0.7539298834585626  0.7539299074386491  0.24607007544562134  1.0000
  Br  Br3       1.0  0.7539297866127553  0.24607019114410683  0.24607018942404232  1.0000
  Br  Br4       1.0  0.2460700261854319  0.7539300014353025  0.7539299583853124  1.0000
  Br  Br5       1.0  0.24607022575697057  0.7539297729371718  0.24607019129331018  1.0000
  Br  Br6       1.0  0.7539298747891945  0.24607004214444386  0.7539299180509632  1.0000
