data_image0
_chemical_formula_structural       Hg2SnF6
_chemical_formula_sum              "Hg2 Sn1 F6"
_cell_length_a       6.633500915067937
_cell_length_b       6.633500501253676
_cell_length_c       6.633501595731011
_cell_angle_alpha    59.999993201294245
_cell_angle_beta     59.99999479764156
_cell_angle_gamma    59.999993093001514

_space_group_name_H-M_alt    "P 1"
_space_group_IT_number       1

loop_
  _space_group_symop_operation_xyz
  'x, y, z'

loop_
  _atom_site_type_symbol
  _atom_site_label
  _atom_site_symmetry_multiplicity
  _atom_site_fract_x
  _atom_site_fract_y
  _atom_site_fract_z
  _atom_site_occupancy
  Hg  Hg1       1.0  0.25000004826784195  0.24999986839706756  0.25000008729494927  1.0000
  Hg  Hg2       1.0  0.7500000260459464  0.7499997473565098  0.7500004114834253  1.0000
  Sn  Sn1       1.0  0.9999999534594156  0.9999999150700776  6.875025381805943e-08  1.0000
  F   F1        1.0  0.2151310265239335  0.21513144175022056  0.7848687432969138  1.0000
  F   F2        1.0  0.78486863025736  0.7848686485031559  0.21513139836292983  1.0000
  F   F3        1.0  0.7848685542139171  0.21513131188723641  0.21513114002400144  1.0000
  F   F4        1.0  0.21513143115433603  0.7848689519185876  0.7848685259487143  1.0000
  F   F5        1.0  0.215131484591519  0.7848687757481887  0.21513111526403073  1.0000
  F   F6        1.0  0.7848688962198378  0.2151313200440832  0.7848685575938614  1.0000
