data_image0
_chemical_formula_structural       Hg2SeF6
_chemical_formula_sum              "Hg2 Se1 F6"
_cell_length_a       5.462831265855125
_cell_length_b       5.46283131178144
_cell_length_c       5.462831258513125
_cell_angle_alpha    60.000000494428974
_cell_angle_beta     60.000000501463546
_cell_angle_gamma    59.99999920765585

_space_group_name_H-M_alt    "P 1"
_space_group_IT_number       1

loop_
  _space_group_symop_operation_xyz
  'x, y, z'

loop_
  _atom_site_type_symbol
  _atom_site_label
  _atom_site_symmetry_multiplicity
  _atom_site_fract_x
  _atom_site_fract_y
  _atom_site_fract_z
  _atom_site_occupancy
  Hg  Hg1       1.0  0.2500000072373688  0.24999998903137774  0.24999995925662763  1.0000
  Hg  Hg2       1.0  0.7499999705756865  0.7500000253850913  0.7500000993505845  1.0000
  Se  Se1       1.0  0.9999998713402924  0.9999999484349242  0.9999996141687134  1.0000
  F   F1        1.0  0.25120996583668503  0.2512098852001691  0.7487901125587293  1.0000
  F   F2        1.0  0.7487901706130962  0.7487901606037362  0.2512098235781133  1.0000
  F   F3        1.0  0.7487901411466621  0.2512098645737122  0.2512098829504345  1.0000
  F   F4        1.0  0.25120974895529186  0.7487902417631136  0.7487903035213849  1.0000
  F   F5        1.0  0.25120988390328114  0.7487901407647413  0.2512099090154134  1.0000
  F   F6        1.0  0.7487902328635183  0.2512097548278514  0.748790307937705  1.0000
