data_image0
_chemical_formula_structural       Hg2SI6
_chemical_formula_sum              "Hg2 S1 I6"
_cell_length_a       7.702973837403572
_cell_length_b       7.70297392937007
_cell_length_c       7.702973828576961
_cell_angle_alpha    60.000000239448475
_cell_angle_beta     59.99999985483327
_cell_angle_gamma    60.00000032631076

_space_group_name_H-M_alt    "P 1"
_space_group_IT_number       1

loop_
  _space_group_symop_operation_xyz
  'x, y, z'

loop_
  _atom_site_type_symbol
  _atom_site_label
  _atom_site_symmetry_multiplicity
  _atom_site_fract_x
  _atom_site_fract_y
  _atom_site_fract_z
  _atom_site_occupancy
  Hg  Hg1       1.0  0.24999998918699268  0.25000000472188716  0.2500000056721346  1.0000
  Hg  Hg2       1.0  0.7499999882902346  0.7500000014459522  0.7500000130116299  1.0000
  S   S1        1.0  1.1296007448722956e-08  0.9999999841003634  1.0091014124720586e-08  1.0000
  I   I1        1.0  0.2653904984454801  0.26539045953163853  0.7346095204410962  1.0000
  I   I2        1.0  0.7346095172194017  0.7346095355064554  0.26539048341551397  1.0000
  I   I3        1.0  0.7346095088996095  0.26539047437055774  0.2653904952584766  1.0000
  I   I4        1.0  0.2653904886859551  0.7346095254374271  0.734609494481648  1.0000
  I   I5        1.0  0.2653904897558953  0.7346095293214776  0.2653904903002529  1.0000
  I   I6        1.0  0.7346095175201119  0.2653904863861439  0.7346094814520324  1.0000
