data_image0
_chemical_formula_structural       Hg2SnF6
_chemical_formula_sum              "Hg2 Sn1 F6"
_cell_length_a       6.633907097536447
_cell_length_b       6.633907087648156
_cell_length_c       6.633907498761263
_cell_angle_alpha    60.00000205092638
_cell_angle_beta     60.00000215222859
_cell_angle_gamma    60.00000163224274

_space_group_name_H-M_alt    "P 1"
_space_group_IT_number       1

loop_
  _space_group_symop_operation_xyz
  'x, y, z'

loop_
  _atom_site_type_symbol
  _atom_site_label
  _atom_site_symmetry_multiplicity
  _atom_site_fract_x
  _atom_site_fract_y
  _atom_site_fract_z
  _atom_site_occupancy
  Hg  Hg1       1.0  0.24999994992580732  0.24999988827260686  0.25000014331838155  1.0000
  Hg  Hg2       1.0  0.7499998776721035  0.7500001189803894  0.7500000185895195  1.0000
  Sn  Sn1       1.0  0.9999999439808069  1.9938844522410865e-07  0.9999998710339043  1.0000
  F   F1        1.0  0.21509647019233732  0.21509630233620977  0.7849035971916845  1.0000
  F   F2        1.0  0.7849037682062275  0.7849036735315678  0.21509632827888717  1.0000
  F   F3        1.0  0.7849035403253479  0.21509629532393063  0.21509651644653535  1.0000
  F   F4        1.0  0.2150965091227158  0.7849035790034381  0.7849037004879816  1.0000
  F   F5        1.0  0.21509629702088384  0.784903699919692  0.21509626976219604  1.0000
  F   F6        1.0  0.7849036257673013  0.2150961836386095  0.7849035762757351  1.0000
