data_image0
_chemical_formula_structural       Hg2TiBr6
_chemical_formula_sum              "Hg2 Ti1 Br6"
_cell_length_a       7.83347926469702
_cell_length_b       7.833478813892896
_cell_length_c       7.833478855466568
_cell_angle_alpha    60.00000006776919
_cell_angle_beta     60.00000211817517
_cell_angle_gamma    59.99999736717141

_space_group_name_H-M_alt    "P 1"
_space_group_IT_number       1

loop_
  _space_group_symop_operation_xyz
  'x, y, z'

loop_
  _atom_site_type_symbol
  _atom_site_label
  _atom_site_symmetry_multiplicity
  _atom_site_fract_x
  _atom_site_fract_y
  _atom_site_fract_z
  _atom_site_occupancy
  Hg  Hg1       1.0  0.2499999742779598  0.2500000588774149  0.2500000104398099  1.0000
  Hg  Hg2       1.0  0.7500000279570869  0.7499999718170064  0.7499999624442465  1.0000
  Ti  Ti1       1.0  5.5268195041131266e-08  9.06815533591542e-08  0.9999999053234017  1.0000
  Br  Br1       1.0  0.22737087979563278  0.22737083767837482  0.7726290880374976  1.0000
  Br  Br2       1.0  0.7726291112014314  0.7726289835103858  0.2273708790503252  1.0000
  Br  Br3       1.0  0.7726292653541246  0.2273707291741328  0.2273706660447307  1.0000
  Br  Br4       1.0  0.22737054344966123  0.7726294219078744  0.7726294314446327  1.0000
  Br  Br5       1.0  0.22737075979273905  0.7726292617330063  0.22737062385679532  1.0000
  Br  Br6       1.0  0.7726293643293609  0.22737066420858174  0.7726293991824646  1.0000
