data_image0
_chemical_formula_structural       Hg2TaF6
_chemical_formula_sum              "Hg2 Ta1 F6"
_cell_length_a       7.23652634147134
_cell_length_b       7.236526021484245
_cell_length_c       7.236524148770947
_cell_angle_alpha    59.99999302626391
_cell_angle_beta     60.00000505803088
_cell_angle_gamma    60.0000075896706

_space_group_name_H-M_alt    "P 1"
_space_group_IT_number       1

loop_
  _space_group_symop_operation_xyz
  'x, y, z'

loop_
  _atom_site_type_symbol
  _atom_site_label
  _atom_site_symmetry_multiplicity
  _atom_site_fract_x
  _atom_site_fract_y
  _atom_site_fract_z
  _atom_site_occupancy
  Hg  Hg1       1.0  0.25000014024609446  0.24999983978469092  0.24999991951768125  1.0000
  Hg  Hg2       1.0  0.7499997510103845  0.7500006956059111  0.7499991874588151  1.0000
  Ta  Ta1       1.0  0.9999999523239149  0.9999999898452806  1.629576581061943e-07  1.0000
  F   F1        1.0  0.18783334338848848  0.18783336276633242  0.8121665848271454  1.0000
  F   F2        1.0  0.8121666417464214  0.8121666564273078  0.1878334256300001  1.0000
  F   F3        1.0  0.8121666159361298  0.1878331476125381  0.1878336481839612  1.0000
  F   F4        1.0  0.18783345731947984  0.8121665737100886  0.8121667656342144  1.0000
  F   F5        1.0  0.18783339032774687  0.8121666194756884  0.18783352078963128  1.0000
  F   F6        1.0  0.8121665452146736  0.18783329478609087  0.8121667783571745  1.0000
