data_image0
_chemical_formula_structural       Hg2TaCl6
_chemical_formula_sum              "Hg2 Ta1 Cl6"
_cell_length_a       7.964529423601483
_cell_length_b       7.964529628460553
_cell_length_c       7.9645296477609175
_cell_angle_alpha    59.99999477805352
_cell_angle_beta     59.999995352520685
_cell_angle_gamma    60.00000079888172

_space_group_name_H-M_alt    "P 1"
_space_group_IT_number       1

loop_
  _space_group_symop_operation_xyz
  'x, y, z'

loop_
  _atom_site_type_symbol
  _atom_site_label
  _atom_site_symmetry_multiplicity
  _atom_site_fract_x
  _atom_site_fract_y
  _atom_site_fract_z
  _atom_site_occupancy
  Hg  Hg1       1.0  0.24999998350494476  0.24999992791569559  0.2500000195325197  1.0000
  Hg  Hg2       1.0  0.7499999043069255  0.7500000528531975  0.7499999308260791  1.0000
  Ta  Ta1       1.0  5.42281847080151e-08  1.9990742612191664e-08  0.9999999503348648  1.0000
  Cl  Cl1       1.0  0.21013241850999684  0.2101324333291848  0.7898676004721206  1.0000
  Cl  Cl2       1.0  0.7898677427267836  0.7898676796861448  0.21013231278562602  1.0000
  Cl  Cl3       1.0  0.7898675092642392  0.2101324723963613  0.2101325365639957  1.0000
  Cl  Cl4       1.0  0.2101324147047798  0.7898675129857743  0.789867544077437  1.0000
  Cl  Cl5       1.0  0.21013248828990286  0.7898674617486546  0.2101325950972738  1.0000
  Cl  Cl6       1.0  0.7898674905530916  0.21013245904801536  0.7898675130001097  1.0000
