data_image0
_chemical_formula_structural       Hg2TiI6
_chemical_formula_sum              "Hg2 Ti1 I6"
_cell_length_a       8.684228561748979
_cell_length_b       8.684228565475562
_cell_length_c       8.684229302366267
_cell_angle_alpha    59.99999572941256
_cell_angle_beta     60.00000271216831
_cell_angle_gamma    60.000002062490026

_space_group_name_H-M_alt    "P 1"
_space_group_IT_number       1

loop_
  _space_group_symop_operation_xyz
  'x, y, z'

loop_
  _atom_site_type_symbol
  _atom_site_label
  _atom_site_symmetry_multiplicity
  _atom_site_fract_x
  _atom_site_fract_y
  _atom_site_fract_z
  _atom_site_occupancy
  Hg  Hg1       1.0  0.25000002132576055  0.2499997258338362  0.25000009136712187  1.0000
  Hg  Hg2       1.0  0.7499999687211223  0.7500002451057165  0.7499998869574148  1.0000
  Ti  Ti1       1.0  1.302596980041972e-07  3.511670315356019e-07  1.4619489117123853e-07  1.0000
  I   I1        1.0  0.22160996312592135  0.2216098011115053  0.7783900990914783  1.0000
  I   I2        1.0  0.7783896461196856  0.7783899878981146  0.22161026884083915  1.0000
  I   I3        1.0  0.7783900885409502  0.22160985489344937  0.22160996546884973  1.0000
  I   I4        1.0  0.2216102987010933  0.7783898100089957  0.7783895584896857  1.0000
  I   I5        1.0  0.22160973358257566  0.7783902793672582  0.2216099841778049  1.0000
  I   I6        1.0  0.7783901257641941  0.22160996799292718  0.7783900295286537  1.0000
