data_image0
_chemical_formula_structural       Hg2TiCl6
_chemical_formula_sum              "Hg2 Ti1 Cl6"
_cell_length_a       7.671893071941718
_cell_length_b       7.671893964177283
_cell_length_c       7.671892718689828
_cell_angle_alpha    59.999997239998024
_cell_angle_beta     60.00000414646248
_cell_angle_gamma    59.999997613994516

_space_group_name_H-M_alt    "P 1"
_space_group_IT_number       1

loop_
  _space_group_symop_operation_xyz
  'x, y, z'

loop_
  _atom_site_type_symbol
  _atom_site_label
  _atom_site_symmetry_multiplicity
  _atom_site_fract_x
  _atom_site_fract_y
  _atom_site_fract_z
  _atom_site_occupancy
  Hg  Hg1       1.0  0.24999999316030674  0.2500000022499382  0.25000000631353975  1.0000
  Hg  Hg2       1.0  0.750000017549379  0.7500000099426276  0.7499999513854487  1.0000
  Ti  Ti1       1.0  0.9999999699211487  4.1985450227369415e-07  0.999999695621566  1.0000
  Cl  Cl1       1.0  0.21684249388342122  0.21684244071594452  0.7831575642535449  1.0000
  Cl  Cl2       1.0  0.7831574899509975  0.7831573495763369  0.21684255563355248  1.0000
  Cl  Cl3       1.0  0.7831576656624597  0.21684237453824265  0.21684231575528853  1.0000
  Cl  Cl4       1.0  0.2168423327951482  0.7831575434664308  0.7831577277501733  1.0000
  Cl  Cl5       1.0  0.21684219147884157  0.7831576651320956  0.2168422142345911  1.0000
  Cl  Cl6       1.0  0.7831578359409703  0.21684223371570477  0.7831579534106791  1.0000
