data_image0
_chemical_formula_structural       Hg2TiI6
_chemical_formula_sum              "Hg2 Ti1 I6"
_cell_length_a       8.661158892009201
_cell_length_b       8.661158997925243
_cell_length_c       8.661159263479211
_cell_angle_alpha    59.999999243613345
_cell_angle_beta     59.999999668869506
_cell_angle_gamma    60.000002664183114

_space_group_name_H-M_alt    "P 1"
_space_group_IT_number       1

loop_
  _space_group_symop_operation_xyz
  'x, y, z'

loop_
  _atom_site_type_symbol
  _atom_site_label
  _atom_site_symmetry_multiplicity
  _atom_site_fract_x
  _atom_site_fract_y
  _atom_site_fract_z
  _atom_site_occupancy
  Hg  Hg1       1.0  0.2500000492124892  0.24999999844998713  0.24999996119132742  1.0000
  Hg  Hg2       1.0  0.749999954957433  0.7499999854514944  0.7500000356647449  1.0000
  Ti  Ti1       1.0  0.9999999997458864  0.9999998967731971  6.674999614682968e-08  1.0000
  I   I1        1.0  0.2222083171221466  0.22220815148693024  0.7777917236792399  1.0000
  I   I2        1.0  0.7777915540356081  0.7777919794773894  0.22220815531183055  1.0000
  I   I3        1.0  0.7777917862988365  0.22220842034154398  0.22220807561252554  1.0000
  I   I4        1.0  0.22220845976830392  0.7777917657713538  0.7777917338266277  1.0000
  I   I5        1.0  0.2222082896268497  0.7777916419929501  0.22220824312151946  1.0000
  I   I6        1.0  0.777791596699897  0.22220815949404019  0.7777919846839749  1.0000
