data_image0
_chemical_formula_structural       Hg2TiF6
_chemical_formula_sum              "Hg2 Ti1 F6"
_cell_length_a       6.577464640852132
_cell_length_b       6.577464584129923
_cell_length_c       6.57746438650024
_cell_angle_alpha    60.000000255856946
_cell_angle_beta     60.00000023525577
_cell_angle_gamma    60.00000258891028

_space_group_name_H-M_alt    "P 1"
_space_group_IT_number       1

loop_
  _space_group_symop_operation_xyz
  'x, y, z'

loop_
  _atom_site_type_symbol
  _atom_site_label
  _atom_site_symmetry_multiplicity
  _atom_site_fract_x
  _atom_site_fract_y
  _atom_site_fract_z
  _atom_site_occupancy
  Hg  Hg1       1.0  0.24999972527088765  0.24999979816843515  0.2500004366248968  1.0000
  Hg  Hg2       1.0  0.7500003379830681  0.7500002845565686  0.7499996011299677  1.0000
  Ti  Ti1       1.0  0.9999999473520573  0.9999999683454572  0.9999999752561642  1.0000
  F   F1        1.0  0.20450950477475888  0.2045094607956962  0.795490642701395  1.0000
  F   F2        1.0  0.7954905511072787  0.7954903333143689  0.2045097756593331  1.0000
  F   F3        1.0  0.7954905049209938  0.20450947555860827  0.20450953332776672  1.0000
  F   F4        1.0  0.20450938304358265  0.7954906853717296  0.7954902458598947  1.0000
  F   F5        1.0  0.20450948164901456  0.7954904924718036  0.20450946033580134  1.0000
  F   F6        1.0  0.795490594800468  0.20450945060081305  0.7954902879279862  1.0000
