data_image0
_chemical_formula_structural       Hg2TaI6
_chemical_formula_sum              "Hg2 Ta1 I6"
_cell_length_a       8.669921756858756
_cell_length_b       8.669921036391983
_cell_length_c       8.669921590994452
_cell_angle_alpha    60.000008784169665
_cell_angle_beta     59.999998336885405
_cell_angle_gamma    60.000005805999656

_space_group_name_H-M_alt    "P 1"
_space_group_IT_number       1

loop_
  _space_group_symop_operation_xyz
  'x, y, z'

loop_
  _atom_site_type_symbol
  _atom_site_label
  _atom_site_symmetry_multiplicity
  _atom_site_fract_x
  _atom_site_fract_y
  _atom_site_fract_z
  _atom_site_occupancy
  Hg  Hg1       1.0  0.2500000305510873  0.2500000094277739  0.24999998525248568  1.0000
  Hg  Hg2       1.0  0.7499999692180296  0.7500000000305852  0.7500000241809635  1.0000
  Ta  Ta1       1.0  3.6052646214193667e-07  2.11895719556868e-08  0.9999998921877122  1.0000
  I   I1        1.0  0.22567027249457602  0.22567052900854334  0.7743295999674144  1.0000
  I   I2        1.0  0.7743294707014133  0.7743293391861367  0.22567050342385078  1.0000
  I   I3        1.0  0.7743296480024551  0.22567049908342574  0.22567021639642856  1.0000
  I   I4        1.0  0.22567025316843803  0.7743295824193895  0.7743297682512839  1.0000
  I   I5        1.0  0.22567062638851507  0.7743293558853789  0.22567058420288716  1.0000
  I   I6        1.0  0.7743293960219944  0.22567065357297883  0.7743293977620843  1.0000
