data_image0
_chemical_formula_structural       Hg2TiCl6
_chemical_formula_sum              "Hg2 Ti1 Cl6"
_cell_length_a       7.681796221123674
_cell_length_b       7.6817963663470294
_cell_length_c       7.681796537171293
_cell_angle_alpha    59.999996805236094
_cell_angle_beta     59.99999508520471
_cell_angle_gamma    59.99999423364498

_space_group_name_H-M_alt    "P 1"
_space_group_IT_number       1

loop_
  _space_group_symop_operation_xyz
  'x, y, z'

loop_
  _atom_site_type_symbol
  _atom_site_label
  _atom_site_symmetry_multiplicity
  _atom_site_fract_x
  _atom_site_fract_y
  _atom_site_fract_z
  _atom_site_occupancy
  Hg  Hg1       1.0  0.24999995302446862  0.24999998366365564  0.25000004781666124  1.0000
  Hg  Hg2       1.0  0.7499999889056381  0.7500000530291732  0.7499999025439927  1.0000
  Ti  Ti1       1.0  0.9999999858359299  0.999999875640933  1.8492197472443172e-08  1.0000
  Cl  Cl1       1.0  0.21657896930709297  0.21657908246686683  0.7834210102015131  1.0000
  Cl  Cl2       1.0  0.7834210227146507  0.7834208761029529  0.2165791338203036  1.0000
  Cl  Cl3       1.0  0.7834210260869499  0.21657908694221858  0.21657912008951313  1.0000
  Cl  Cl4       1.0  0.2165789978632983  0.7834210103357921  0.7834208878445788  1.0000
  Cl  Cl5       1.0  0.21657899579989962  0.7834210233088769  0.21657910665019847  1.0000
  Cl  Cl6       1.0  0.7834211323715737  0.21657896874222687  0.7834208106622164  1.0000
