data_image0
_chemical_formula_structural       Hg2TiBr6
_chemical_formula_sum              "Hg2 Ti1 Br6"
_cell_length_a       7.837417948830859
_cell_length_b       7.837417905705768
_cell_length_c       7.837418034663949
_cell_angle_alpha    60.000000534445924
_cell_angle_beta     60.00000042221868
_cell_angle_gamma    59.99999919333942

_space_group_name_H-M_alt    "P 1"
_space_group_IT_number       1

loop_
  _space_group_symop_operation_xyz
  'x, y, z'

loop_
  _atom_site_type_symbol
  _atom_site_label
  _atom_site_symmetry_multiplicity
  _atom_site_fract_x
  _atom_site_fract_y
  _atom_site_fract_z
  _atom_site_occupancy
  Hg  Hg1       1.0  0.24999994174375698  0.24999995285983034  0.2499999902106135  1.0000
  Hg  Hg2       1.0  0.7500000480417417  0.7500000210991726  0.7500000420843616  1.0000
  Ti  Ti1       1.0  0.9999999896127394  0.9999999781223503  0.9999999829582643  1.0000
  Br  Br1       1.0  0.22731358264647197  0.2273136275252879  0.7726864421775067  1.0000
  Br  Br2       1.0  0.7726863474173132  0.7726863620606087  0.22731365299465095  1.0000
  Br  Br3       1.0  0.772686457070215  0.22731358410816604  0.22731356090117624  1.0000
  Br  Br4       1.0  0.22731361374774864  0.7726863898508357  0.7726863977033768  1.0000
  Br  Br5       1.0  0.22731361750421114  0.772686436366979  0.22731354811197652  1.0000
  Br  Br6       1.0  0.7726863822650584  0.2273136579190958  0.772686387129318  1.0000
