data_image0
_chemical_formula_structural       Hg2TeBr6
_chemical_formula_sum              "Hg2 Te1 Br6"
_cell_length_a       7.725719645886767
_cell_length_b       7.725719429915526
_cell_length_c       7.725720004947325
_cell_angle_alpha    59.99999777179491
_cell_angle_beta     59.999997455050035
_cell_angle_gamma    60.00000467029728

_space_group_name_H-M_alt    "P 1"
_space_group_IT_number       1

loop_
  _space_group_symop_operation_xyz
  'x, y, z'

loop_
  _atom_site_type_symbol
  _atom_site_label
  _atom_site_symmetry_multiplicity
  _atom_site_fract_x
  _atom_site_fract_y
  _atom_site_fract_z
  _atom_site_occupancy
  Hg  Hg1       1.0  0.24999998380770475  0.2500000024151523  0.2500000038124099  1.0000
  Hg  Hg2       1.0  0.750000022107959  0.7500000104160276  0.7499999900420544  1.0000
  Te  Te1       1.0  0.9999996034673975  3.37665168041463e-07  1.1486265172850451e-07  1.0000
  Br  Br1       1.0  0.24742015052367208  0.247420043595381  0.7525799086198531  1.0000
  Br  Br2       1.0  0.7525799162802571  0.752579885215825  0.24742009550608687  1.0000
  Br  Br3       1.0  0.7525798375507919  0.24742016260041622  0.24742014140115273  1.0000
  Br  Br4       1.0  0.24742034658981696  0.7525796742644055  0.7525796701111328  1.0000
  Br  Br5       1.0  0.2474203520964066  0.7525796820984021  0.247420289621854  1.0000
  Br  Br6       1.0  0.7525797928059039  0.24742020073961438  0.7525797916366868  1.0000
