data_image0
_chemical_formula_structural       Hg2TaBr6
_chemical_formula_sum              "Hg2 Ta1 Br6"
_cell_length_a       8.160465451162029
_cell_length_b       8.160465972945268
_cell_length_c       8.16046588756751
_cell_angle_alpha    60.000003821098744
_cell_angle_beta     60.00000241565205
_cell_angle_gamma    60.0000037583979

_space_group_name_H-M_alt    "P 1"
_space_group_IT_number       1

loop_
  _space_group_symop_operation_xyz
  'x, y, z'

loop_
  _atom_site_type_symbol
  _atom_site_label
  _atom_site_symmetry_multiplicity
  _atom_site_fract_x
  _atom_site_fract_y
  _atom_site_fract_z
  _atom_site_occupancy
  Hg  Hg1       1.0  0.24999998578760244  0.2500000197534692  0.24999989727374658  1.0000
  Hg  Hg2       1.0  0.7500000166503316  0.7500000172372606  0.750000120664075  1.0000
  Ta  Ta1       1.0  0.9999999077973843  0.9999999624793281  2.682813984030669e-07  1.0000
  Br  Br1       1.0  0.21938375389913226  0.2193839654532986  0.7806162243959619  1.0000
  Br  Br2       1.0  0.780616297190511  0.7806161420763035  0.219383753553296  1.0000
  Br  Br3       1.0  0.7806161811932308  0.2193838547439616  0.21938381248437153  1.0000
  Br  Br4       1.0  0.21938393370616358  0.7806158745772176  0.7806160849326894  1.0000
  Br  Br5       1.0  0.21938380266215668  0.7806161585067638  0.21938384195669652  1.0000
  Br  Br6       1.0  0.7806161350710654  0.21938393251373725  0.7806160734816144  1.0000
