data_image0
_chemical_formula_structural       Hg2VF6
_chemical_formula_sum              "Hg2 V1 F6"
_cell_length_a       7.259626573326321
_cell_length_b       7.259623010677142
_cell_length_c       7.259625041780127
_cell_angle_alpha    59.99999836552405
_cell_angle_beta     60.000002594263506
_cell_angle_gamma    60.00000063790344

_space_group_name_H-M_alt    "P 1"
_space_group_IT_number       1

loop_
  _space_group_symop_operation_xyz
  'x, y, z'

loop_
  _atom_site_type_symbol
  _atom_site_label
  _atom_site_symmetry_multiplicity
  _atom_site_fract_x
  _atom_site_fract_y
  _atom_site_fract_z
  _atom_site_occupancy
  Hg  Hg1       1.0  0.24999983925087502  0.24999994920833776  0.24999946159069533  1.0000
  Hg  Hg2       1.0  0.7500003555242153  0.749999677231856  0.7500002770931158  1.0000
  V   V1        1.0  0.9999998100760318  1.4508750308843752e-07  1.271068496664124e-07  1.0000
  F   F1        1.0  0.17668754935588843  0.17668834625619595  0.8233118620451194  1.0000
  F   F2        1.0  0.8233121400560396  0.8233118132961958  0.17668783521458897  1.0000
  F   F3        1.0  0.8233122065542116  0.17668786541110193  0.17668833807949313  1.0000
  F   F4        1.0  0.17668813532017458  0.8233120545783632  0.8233121913515491  1.0000
  F   F5        1.0  0.1766880072737049  0.8233121617715211  0.17668787159807878  1.0000
  F   F6        1.0  0.8233118505465127  0.1766880079033287  0.8233122805014873  1.0000
