data_image0
_chemical_formula_structural       Hg2VBr6
_chemical_formula_sum              "Hg2 V1 Br6"
_cell_length_a       7.577815720613012
_cell_length_b       7.577815858431481
_cell_length_c       7.577816194594661
_cell_angle_alpha    59.99999860269645
_cell_angle_beta     59.99999775278171
_cell_angle_gamma    59.99999981097398

_space_group_name_H-M_alt    "P 1"
_space_group_IT_number       1

loop_
  _space_group_symop_operation_xyz
  'x, y, z'

loop_
  _atom_site_type_symbol
  _atom_site_label
  _atom_site_symmetry_multiplicity
  _atom_site_fract_x
  _atom_site_fract_y
  _atom_site_fract_z
  _atom_site_occupancy
  Hg  Hg1       1.0  0.2500000187023744  0.24999997141579014  0.25000004468282516  1.0000
  Hg  Hg2       1.0  0.7499999603987457  0.7500000322317308  0.7499999605945916  1.0000
  V   V1        1.0  1.4927077889491223e-07  0.9999999498970531  0.9999999675714221  1.0000
  Br  Br1       1.0  0.2288223008044063  0.228822178372574  0.7711777978880701  1.0000
  Br  Br2       1.0  0.7711777290466939  0.7711776410253969  0.22882236123546412  1.0000
  Br  Br3       1.0  0.7711777595764636  0.22882230116153848  0.2288223956739989  1.0000
  Br  Br4       1.0  0.22882223032848237  0.7711777752160685  0.7711777103577336  1.0000
  Br  Br5       1.0  0.22882218188181333  0.7711778229063482  0.22882224783467514  1.0000
  Br  Br6       1.0  0.7711776787306426  0.22882232135267064  0.7711775378779832  1.0000
