data_image0
_chemical_formula_structural       Hg2VBr6
_chemical_formula_sum              "Hg2 V1 Br6"
_cell_length_a       7.583581840781595
_cell_length_b       7.583582427457832
_cell_length_c       7.583583093204349
_cell_angle_alpha    59.99999571985345
_cell_angle_beta     59.99999882171164
_cell_angle_gamma    60.00000296514974

_space_group_name_H-M_alt    "P 1"
_space_group_IT_number       1

loop_
  _space_group_symop_operation_xyz
  'x, y, z'

loop_
  _atom_site_type_symbol
  _atom_site_label
  _atom_site_symmetry_multiplicity
  _atom_site_fract_x
  _atom_site_fract_y
  _atom_site_fract_z
  _atom_site_occupancy
  Hg  Hg1       1.0  0.2500000571961999  0.24999995892582852  0.25000001370623587  1.0000
  Hg  Hg2       1.0  0.7499999429456714  0.7499999962871191  0.7500000468957444  1.0000
  V   V1        1.0  0.9999998635014242  0.9999999983850081  0.9999997710446166  1.0000
  Br  Br1       1.0  0.22858168766986633  0.22858169201038064  0.7714182501488048  1.0000
  Br  Br2       1.0  0.7714183721580103  0.7714185135268261  0.22858149061830646  1.0000
  Br  Br3       1.0  0.771417933721967  0.2285819999389948  0.2285818504325691  1.0000
  Br  Br4       1.0  0.22858184792606093  0.7714181813732622  0.7714183435050094  1.0000
  Br  Br5       1.0  0.228582023940164  0.7714180306713849  0.22858176409605419  1.0000
  Br  Br6       1.0  0.7714183109091161  0.22858161930748433  0.7714184993445267  1.0000
