data_image0
_chemical_formula_structural       Hg2VF6
_chemical_formula_sum              "Hg2 V1 F6"
_cell_length_a       7.261090086000483
_cell_length_b       7.261089468806409
_cell_length_c       7.261089579229213
_cell_angle_alpha    59.999997159421696
_cell_angle_beta     59.99999326270384
_cell_angle_gamma    60.000010283649075

_space_group_name_H-M_alt    "P 1"
_space_group_IT_number       1

loop_
  _space_group_symop_operation_xyz
  'x, y, z'

loop_
  _atom_site_type_symbol
  _atom_site_label
  _atom_site_symmetry_multiplicity
  _atom_site_fract_x
  _atom_site_fract_y
  _atom_site_fract_z
  _atom_site_occupancy
  Hg  Hg1       1.0  0.25000039064170815  0.25000007958477394  0.24999993073174948  1.0000
  Hg  Hg2       1.0  0.7499994401812097  0.7500003197167536  0.7499999207209955  1.0000
  V   V1        1.0  0.9999999279229816  8.26494278311826e-08  0.9999999795645572  1.0000
  F   F1        1.0  0.17661238877889623  0.17661234507527482  0.8233873728426422  1.0000
  F   F2        1.0  0.8233879131546646  0.8233875330288413  0.17661236868749375  1.0000
  F   F3        1.0  0.8233876693277858  0.17661222092375628  0.17661242069111616  1.0000
  F   F4        1.0  0.17661239191736708  0.8233874918814458  0.82338801962606  1.0000
  F   F5        1.0  0.17661238779239424  0.8233876572706595  0.17661221081203216  1.0000
  F   F6        1.0  0.8233874881284382  0.17661223938734408  0.8233877950445193  1.0000
