data_image0
_chemical_formula_structural       Hg2VI6
_chemical_formula_sum              "Hg2 V1 I6"
_cell_length_a       8.305396501966882
_cell_length_b       8.305397340386593
_cell_length_c       8.305395515313974
_cell_angle_alpha    60.000010344608604
_cell_angle_beta     60.000021641244544
_cell_angle_gamma    60.000011366402774

_space_group_name_H-M_alt    "P 1"
_space_group_IT_number       1

loop_
  _space_group_symop_operation_xyz
  'x, y, z'

loop_
  _atom_site_type_symbol
  _atom_site_label
  _atom_site_symmetry_multiplicity
  _atom_site_fract_x
  _atom_site_fract_y
  _atom_site_fract_z
  _atom_site_occupancy
  Hg  Hg1       1.0  0.2500000041587064  0.24999983427062428  0.25000013719834063  1.0000
  Hg  Hg2       1.0  0.7500000408021672  0.750000302065212  0.7499997870989495  1.0000
  V   V1        1.0  1.2963286879280701e-07  1.2829343384882758e-07  0.9999998409359545  1.0000
  I   I1        1.0  0.22642092080232928  0.22642076968678412  0.7735789247977513  1.0000
  I   I2        1.0  0.7735787585311922  0.7735789036129932  0.22642115857543008  1.0000
  I   I3        1.0  0.7735790851966063  0.22642081954104606  0.2264207801036745  1.0000
  I   I4        1.0  0.2264210407270964  0.7735791781788991  0.7735791898766664  1.0000
  I   I5        1.0  0.2264207687350571  0.7735790880737645  0.22642081940037986  1.0000
  I   I6        1.0  0.7735792655974676  0.22642090079835164  0.7735793609363172  1.0000
