data_image0
_chemical_formula_structural       Hg2VCl6
_chemical_formula_sum              "Hg2 V1 Cl6"
_cell_length_a       7.604448422817473
_cell_length_b       7.6044491984307605
_cell_length_c       7.604448996836247
_cell_angle_alpha    60.000008761814705
_cell_angle_beta     60.00000498294105
_cell_angle_gamma    60.00000693740636

_space_group_name_H-M_alt    "P 1"
_space_group_IT_number       1

loop_
  _space_group_symop_operation_xyz
  'x, y, z'

loop_
  _atom_site_type_symbol
  _atom_site_label
  _atom_site_symmetry_multiplicity
  _atom_site_fract_x
  _atom_site_fract_y
  _atom_site_fract_z
  _atom_site_occupancy
  Hg  Hg1       1.0  0.25000005849539764  0.2500000553049787  0.2499999854879332  1.0000
  Hg  Hg2       1.0  0.750000024901423  0.749999993584649  0.7500000298149914  1.0000
  V   V1        1.0  0.9999999492304457  6.120140212935487e-08  0.9999998908975231  1.0000
  Cl  Cl1       1.0  0.21284431094614317  0.21284452070085655  0.7871555567071622  1.0000
  Cl  Cl2       1.0  0.7871558022065832  0.7871555072514339  0.21284423852325285  1.0000
  Cl  Cl3       1.0  0.7871555431750576  0.21284453722584998  0.2128441746908166  1.0000
  Cl  Cl4       1.0  0.21284415117381536  0.7871556082975802  0.7871559855041446  1.0000
  Cl  Cl5       1.0  0.21284432105180717  0.7871554926675024  0.21284417828711644  1.0000
  Cl  Cl6       1.0  0.7871557835798717  0.21284413264395352  0.7871560000518705  1.0000
