data_image0
_chemical_formula_structural       Hg2VI6
_chemical_formula_sum              "Hg2 V1 I6"
_cell_length_a       8.425841241127836
_cell_length_b       8.42584159890978
_cell_length_c       8.425840575772328
_cell_angle_alpha    60.00000596191691
_cell_angle_beta     60.0000041421997
_cell_angle_gamma    59.99999892177014

_space_group_name_H-M_alt    "P 1"
_space_group_IT_number       1

loop_
  _space_group_symop_operation_xyz
  'x, y, z'

loop_
  _atom_site_type_symbol
  _atom_site_label
  _atom_site_symmetry_multiplicity
  _atom_site_fract_x
  _atom_site_fract_y
  _atom_site_fract_z
  _atom_site_occupancy
  Hg  Hg1       1.0  0.2499999631212635  0.25000000791627786  0.24999987531839962  1.0000
  Hg  Hg2       1.0  0.7500000657903547  0.749999946710265  0.7500000699804888  1.0000
  V   V1        1.0  1.959918548851858e-08  1.220988568217479e-07  0.9999998828647977  1.0000
  I   I1        1.0  0.22331284462170334  0.22331312160053624  0.7766870363106184  1.0000
  I   I2        1.0  0.7766869591216888  0.7766869987316162  0.22331303722607015  1.0000
  I   I3        1.0  0.7766875979694802  0.22331266136676317  0.22331235156441004  1.0000
  I   I4        1.0  0.22331264680465038  0.7766873281451555  0.7766875336359237  1.0000
  I   I5        1.0  0.22331249650975019  0.7766871490763156  0.22331271832980018  1.0000
  I   I6        1.0  0.7766873528640459  0.22331268635849652  0.7766874534774993  1.0000
