data_image0
_chemical_formula_structural       Hg2WI6
_chemical_formula_sum              "Hg2 W1 I6"
_cell_length_a       8.180058651678008
_cell_length_b       8.180059060384156
_cell_length_c       8.180058893731362
_cell_angle_alpha    60.000002370647536
_cell_angle_beta     60.00000044334979
_cell_angle_gamma    60.000003855894

_space_group_name_H-M_alt    "P 1"
_space_group_IT_number       1

loop_
  _space_group_symop_operation_xyz
  'x, y, z'

loop_
  _atom_site_type_symbol
  _atom_site_label
  _atom_site_symmetry_multiplicity
  _atom_site_fract_x
  _atom_site_fract_y
  _atom_site_fract_z
  _atom_site_occupancy
  Hg  Hg1       1.0  0.2500000899755323  0.25000003901918655  0.25000000290285745  1.0000
  Hg  Hg2       1.0  0.7499999146182952  0.7499999718260199  0.7499999350199398  1.0000
  W   W1        1.0  0.9999999685409215  2.680045735487018e-07  0.9999999831935177  1.0000
  I   I1        1.0  0.23634035714127202  0.23634045598548345  0.7636596230009932  1.0000
  I   I2        1.0  0.7636595831769198  0.7636594216060536  0.23634057872194053  1.0000
  I   I3        1.0  0.7636594705337441  0.23634053328346036  0.23634055873800244  1.0000
  I   I4        1.0  0.23634073924679844  0.763659179612531  0.763659339992087  1.0000
  I   I5        1.0  0.23634057643728687  0.7636593235242385  0.23634068633141544  1.0000
  I   I6        1.0  0.7636593315092973  0.23634082057463626  0.7636592394005953  1.0000
