data_image0
_chemical_formula_structural       Hg2WF6
_chemical_formula_sum              "Hg2 W1 F6"
_cell_length_a       7.586797458561874
_cell_length_b       7.586797311271676
_cell_length_c       7.586796196916981
_cell_angle_alpha    60.00000636722563
_cell_angle_beta     60.000011272462956
_cell_angle_gamma    60.00001744127915

_space_group_name_H-M_alt    "P 1"
_space_group_IT_number       1

loop_
  _space_group_symop_operation_xyz
  'x, y, z'

loop_
  _atom_site_type_symbol
  _atom_site_label
  _atom_site_symmetry_multiplicity
  _atom_site_fract_x
  _atom_site_fract_y
  _atom_site_fract_z
  _atom_site_occupancy
  Hg  Hg1       1.0  0.25000075365656627  0.24999943528338586  0.24999921431524522  1.0000
  Hg  Hg2       1.0  0.7499993430833475  0.750000580413389  0.7499994685358227  1.0000
  W   W1        1.0  0.9999998877554284  1.1300172703470172e-07  0.9999999930310216  1.0000
  F   F1        1.0  0.17637194863933245  0.17637168530510297  0.8236284527994303  1.0000
  F   F2        1.0  0.8236282394357264  0.8236283029483956  0.17637214622710312  1.0000
  F   F3        1.0  0.8236286199796069  0.1763713393081552  0.17637205864746427  1.0000
  F   F4        1.0  0.1763719409612566  0.8236280645649552  0.8236283785662466  1.0000
  F   F5        1.0  0.1763712214126683  0.8236285761205147  0.17637197763704474  1.0000
  F   F6        1.0  0.8236280243441132  0.17637192871224852  0.8236282253062636  1.0000
