data_image0
_chemical_formula_structural       Hg2WBr6
_chemical_formula_sum              "Hg2 W1 Br6"
_cell_length_a       8.190037949537615
_cell_length_b       8.190037266474175
_cell_length_c       8.190037905473313
_cell_angle_alpha    60.000003523817846
_cell_angle_beta     59.999994821984124
_cell_angle_gamma    60.00000543433763

_space_group_name_H-M_alt    "P 1"
_space_group_IT_number       1

loop_
  _space_group_symop_operation_xyz
  'x, y, z'

loop_
  _atom_site_type_symbol
  _atom_site_label
  _atom_site_symmetry_multiplicity
  _atom_site_fract_x
  _atom_site_fract_y
  _atom_site_fract_z
  _atom_site_occupancy
  Hg  Hg1       1.0  0.2500000424169304  0.24999995320855628  0.24999995320697901  1.0000
  Hg  Hg2       1.0  0.7499999804492581  0.7500000166435236  0.750000020568187  1.0000
  W   W1        1.0  9.60046041261741e-09  0.9999998908352041  0.999999985069397  1.0000
  Br  Br1       1.0  0.21496579839709054  0.2149656316370264  0.7850343075090064  1.0000
  Br  Br2       1.0  0.785034413721011  0.7850343456921087  0.21496559354257525  1.0000
  Br  Br3       1.0  0.7850342252836189  0.21496572362367408  0.21496595226849086  1.0000
  Br  Br4       1.0  0.21496569773732968  0.7850342327697548  0.7850343992804589  1.0000
  Br  Br5       1.0  0.2149658486787213  0.7850341683219764  0.21496591143220203  1.0000
  Br  Br6       1.0  0.7850339729257829  0.21496605425403995  0.7850338412525666  1.0000
