data_image0
_chemical_formula_structural       Hg2WCl6
_chemical_formula_sum              "Hg2 W1 Cl6"
_cell_length_a       8.282433859564305
_cell_length_b       8.282433728041745
_cell_length_c       8.282434570662662
_cell_angle_alpha    59.9999967114576
_cell_angle_beta     59.99999460405976
_cell_angle_gamma    60.00000404684453

_space_group_name_H-M_alt    "P 1"
_space_group_IT_number       1

loop_
  _space_group_symop_operation_xyz
  'x, y, z'

loop_
  _atom_site_type_symbol
  _atom_site_label
  _atom_site_symmetry_multiplicity
  _atom_site_fract_x
  _atom_site_fract_y
  _atom_site_fract_z
  _atom_site_occupancy
  Hg  Hg1       1.0  0.24999998180154223  0.24999986734047858  0.2500001147744257  1.0000
  Hg  Hg2       1.0  0.750000059268611  0.7499999672667268  0.7500000299114207  1.0000
  W   W1        1.0  3.3739992176794464e-08  8.280864995426972e-08  0.9999999550067974  1.0000
  Cl  Cl1       1.0  0.19908375919528876  0.1990836381119907  0.8009163180619013  1.0000
  Cl  Cl2       1.0  0.8009162659036401  0.8009163029634735  0.19908370410346252  1.0000
  Cl  Cl3       1.0  0.8009158803053523  0.1990841060932138  0.1990840917309444  1.0000
  Cl  Cl4       1.0  0.1990840384969566  0.8009159991208109  0.8009159268683153  1.0000
  Cl  Cl5       1.0  0.1990841321835835  0.8009159025817668  0.1990840831440459  1.0000
  Cl  Cl6       1.0  0.800915823064941  0.19908414348322617  0.8009158647051574  1.0000
