data_image0
_chemical_formula_structural       Hg2YF6
_chemical_formula_sum              "Hg2 Y1 F6"
_cell_length_a       6.387281527529347
_cell_length_b       6.387281737032062
_cell_length_c       6.387281528322666
_cell_angle_alpha    59.999998361191345
_cell_angle_beta     59.99999535962737
_cell_angle_gamma    59.99999738753019

_space_group_name_H-M_alt    "P 1"
_space_group_IT_number       1

loop_
  _space_group_symop_operation_xyz
  'x, y, z'

loop_
  _atom_site_type_symbol
  _atom_site_label
  _atom_site_symmetry_multiplicity
  _atom_site_fract_x
  _atom_site_fract_y
  _atom_site_fract_z
  _atom_site_occupancy
  Hg  Hg1       1.0  0.25000004232742035  0.2500000414602364  0.24999978699533984  1.0000
  Hg  Hg2       1.0  0.7499998660777817  0.749999838677028  0.7500002088694542  1.0000
  Y   Y1        1.0  0.9999999670207316  2.300969319140541e-08  0.9999999736725628  1.0000
  F   F1        1.0  0.24097630152464017  0.24097616674474073  0.7590239030300547  1.0000
  F   F2        1.0  0.7590237234734216  0.7590238246060304  0.2409762482166896  1.0000
  F   F3        1.0  0.7590238839634379  0.2409762856544959  0.24097619085798896  1.0000
  F   F4        1.0  0.24097617227812168  0.7590237421282897  0.7590237418088668  1.0000
  F   F5        1.0  0.24097630672336648  0.7590236934178164  0.24097617820397452  1.0000
  F   F6        1.0  0.759023724080343  0.24097637271445643  0.759023768360009  1.0000
