data_image0
_chemical_formula_structural       Hg2YI6
_chemical_formula_sum              "Hg2 Y1 I6"
_cell_length_a       9.217682933730165
_cell_length_b       9.217683542632766
_cell_length_c       9.21768218391753
_cell_angle_alpha    60.00000151535867
_cell_angle_beta     60.000001639371426
_cell_angle_gamma    59.99999823370832

_space_group_name_H-M_alt    "P 1"
_space_group_IT_number       1

loop_
  _space_group_symop_operation_xyz
  'x, y, z'

loop_
  _atom_site_type_symbol
  _atom_site_label
  _atom_site_symmetry_multiplicity
  _atom_site_fract_x
  _atom_site_fract_y
  _atom_site_fract_z
  _atom_site_occupancy
  Hg  Hg1       1.0  0.25000027761699595  0.2500000555582123  0.24999986934332627  1.0000
  Hg  Hg2       1.0  0.7499997780178413  0.7499998849922984  0.7500002155349373  1.0000
  Y   Y1        1.0  3.1847222491152735e-08  1.0363785848502543e-07  0.9999999192389996  1.0000
  I   I1        1.0  0.2329803448714231  0.232980800040859  0.7670195571287467  1.0000
  I   I2        1.0  0.7670196260226082  0.7670191391809688  0.23298046338199124  1.0000
  I   I3        1.0  0.7670195667015987  0.2329806700078568  0.23298031799178553  1.0000
  I   I4        1.0  0.23298037827644535  0.7670193582362346  0.7670197089363121  1.0000
  I   I5        1.0  0.23298046051032292  0.7670195531757968  0.23298040065585693  1.0000
  I   I6        1.0  0.7670195240613595  0.23298043520758033  0.7670195472101651  1.0000
