data_image0
_chemical_formula_structural       Hg2YBr6
_chemical_formula_sum              "Hg2 Y1 Br6"
_cell_length_a       8.770632674904137
_cell_length_b       8.770632846271669
_cell_length_c       8.770632681152401
_cell_angle_alpha    60.00000137823851
_cell_angle_beta     60.00000119752576
_cell_angle_gamma    60.00000410461456

_space_group_name_H-M_alt    "P 1"
_space_group_IT_number       1

loop_
  _space_group_symop_operation_xyz
  'x, y, z'

loop_
  _atom_site_type_symbol
  _atom_site_label
  _atom_site_symmetry_multiplicity
  _atom_site_fract_x
  _atom_site_fract_y
  _atom_site_fract_z
  _atom_site_occupancy
  Hg  Hg1       1.0  0.2500000654319031  0.2499999749692934  0.24999995838445654  1.0000
  Hg  Hg2       1.0  0.749999935948968  0.7500000226569629  0.7500000636280458  1.0000
  Y   Y1        1.0  0.9999999889085377  2.9324726563601788e-08  0.9999999122117343  1.0000
  Br  Br1       1.0  0.22668857200240383  0.22668854399520919  0.7733114623585671  1.0000
  Br  Br2       1.0  0.7733114572793736  0.7733114173242429  0.2266885524551986  1.0000
  Br  Br3       1.0  0.7733114187786406  0.22668857201225975  0.22668868438916814  1.0000
  Br  Br4       1.0  0.22668873568296208  0.7733113376398199  0.7733112959487092  1.0000
  Br  Br5       1.0  0.22668850168478283  0.7733114625545037  0.22668869118076565  1.0000
  Br  Br6       1.0  0.773311313621663  0.2266886272351752  0.773311406291452  1.0000
