data_image0
_chemical_formula_structural       Hg2YCl6
_chemical_formula_sum              "Hg2 Y1 Cl6"
_cell_length_a       8.546376247691855
_cell_length_b       8.546376955413065
_cell_length_c       8.546376265779424
_cell_angle_alpha    60.00000257274644
_cell_angle_beta     60.00000113966191
_cell_angle_gamma    59.999995277082036

_space_group_name_H-M_alt    "P 1"
_space_group_IT_number       1

loop_
  _space_group_symop_operation_xyz
  'x, y, z'

loop_
  _atom_site_type_symbol
  _atom_site_label
  _atom_site_symmetry_multiplicity
  _atom_site_fract_x
  _atom_site_fract_y
  _atom_site_fract_z
  _atom_site_occupancy
  Hg  Hg1       1.0  0.24999998077565266  0.24999992879935096  0.24999999549365517  1.0000
  Hg  Hg2       1.0  0.7500000418679934  0.7499999984905368  0.7499998821480153  1.0000
  Y   Y1        1.0  0.9999999525897865  0.9999999355124217  6.530958795503733e-08  1.0000
  Cl  Cl1       1.0  0.21838713644545074  0.21838673868903935  0.7816131408193742  1.0000
  Cl  Cl2       1.0  0.7816129184747361  0.7816131728372129  0.2183869976857524  1.0000
  Cl  Cl3       1.0  0.7816129596539271  0.21838708318286024  0.21838705735912683  1.0000
  Cl  Cl4       1.0  0.2183869911753364  0.7816129257913037  0.781612945227204  1.0000
  Cl  Cl5       1.0  0.21838675781145309  0.7816132729161464  0.21838717369220698  1.0000
  Cl  Cl6       1.0  0.7816132534589153  0.21838694385133278  0.7816127591316748  1.0000
