data_image0
_chemical_formula_structural       Hg2ZnBr6
_chemical_formula_sum              "Hg2 Zn1 Br6"
_cell_length_a       7.240240558580007
_cell_length_b       7.24024055451101
_cell_length_c       7.240240687315844
_cell_angle_alpha    59.99999907211001
_cell_angle_beta     59.99999956100667
_cell_angle_gamma    59.99999930359415

_space_group_name_H-M_alt    "P 1"
_space_group_IT_number       1

loop_
  _space_group_symop_operation_xyz
  'x, y, z'

loop_
  _atom_site_type_symbol
  _atom_site_label
  _atom_site_symmetry_multiplicity
  _atom_site_fract_x
  _atom_site_fract_y
  _atom_site_fract_z
  _atom_site_occupancy
  Hg  Hg1       1.0  0.2500000119705111  0.2500000281254863  0.2499999763595873  1.0000
  Hg  Hg2       1.0  0.7499999890504454  0.7500000048721811  0.7500000157413272  1.0000
  Zn  Zn1       1.0  0.9999999860168383  8.457902197033465e-09  0.999999933704152  1.0000
  Br  Br1       1.0  0.24942798122132132  0.24942792508317285  0.7505720510378787  1.0000
  Br  Br2       1.0  0.7505720808070222  0.7505720588586635  0.24942793370608848  1.0000
  Br  Br3       1.0  0.7505720409564948  0.2494279608076131  0.24942794165169396  1.0000
  Br  Br4       1.0  0.24942791466827052  0.7505720552742505  0.7505721119909482  1.0000
  Br  Br5       1.0  0.24942795028086287  0.750572037082119  0.24942792497231014  1.0000
  Br  Br6       1.0  0.750572045715148  0.24942792486917273  0.7505720968772479  1.0000
