data_image0
_chemical_formula_structural       Hg2ZnCl6
_chemical_formula_sum              "Hg2 Zn1 Cl6"
_cell_length_a       6.761801532071167
_cell_length_b       6.761801560925407
_cell_length_c       6.761801448542707
_cell_angle_alpha    60.000000518875645
_cell_angle_beta     60.00000061009138
_cell_angle_gamma    60.00000037168806

_space_group_name_H-M_alt    "P 1"
_space_group_IT_number       1

loop_
  _space_group_symop_operation_xyz
  'x, y, z'

loop_
  _atom_site_type_symbol
  _atom_site_label
  _atom_site_symmetry_multiplicity
  _atom_site_fract_x
  _atom_site_fract_y
  _atom_site_fract_z
  _atom_site_occupancy
  Hg  Hg1       1.0  0.2499999995855049  0.24999999903258185  0.249999998902587  1.0000
  Hg  Hg2       1.0  0.7499999957377315  0.7500000061540957  0.7499999966467693  1.0000
  Zn  Zn1       1.0  0.999999991461591  7.45284883786125e-18  2.7903086144193835e-09  1.0000
  Cl  Cl1       1.0  0.2502081181872079  0.25020812065032977  0.749791879640337  1.0000
  Cl  Cl2       1.0  0.7497918900901375  0.7497918917814281  0.25020810580942454  1.0000
  Cl  Cl3       1.0  0.749791880275487  0.2502081115318156  0.25020811889052563  1.0000
  Cl  Cl4       1.0  0.25020811817012073  0.7497918791647018  0.7497918808638291  1.0000
  Cl  Cl5       1.0  0.2502081174709869  0.74979188334265  0.25020812386227353  1.0000
  Cl  Cl6       1.0  0.7497918883055166  0.2502081109764075  0.7497918940776969  1.0000
