data_image0
_chemical_formula_structural       Hg2ZrBr6
_chemical_formula_sum              "Hg2 Zr1 Br6"
_cell_length_a       8.069358047374493
_cell_length_b       8.069358339437148
_cell_length_c       8.069358685033656
_cell_angle_alpha    59.99999807401035
_cell_angle_beta     60.000000075311775
_cell_angle_gamma    60.00000210496722

_space_group_name_H-M_alt    "P 1"
_space_group_IT_number       1

loop_
  _space_group_symop_operation_xyz
  'x, y, z'

loop_
  _atom_site_type_symbol
  _atom_site_label
  _atom_site_symmetry_multiplicity
  _atom_site_fract_x
  _atom_site_fract_y
  _atom_site_fract_z
  _atom_site_occupancy
  Hg  Hg1       1.0  0.2500000293851162  0.2499999701221214  0.24999991482709535  1.0000
  Hg  Hg2       1.0  0.7500000314795203  0.749999955899528  0.7500000363207197  1.0000
  Zr  Zr1       1.0  0.9999998947580053  4.097984837609598e-08  1.3375005100007673e-07  1.0000
  Br  Br1       1.0  0.23298105266256733  0.2329810348312319  0.7670189507931389  1.0000
  Br  Br2       1.0  0.7670189706198679  0.7670189610079432  0.23298101397915338  1.0000
  Br  Br3       1.0  0.7670189714033347  0.23298103119288388  0.23298101979983732  1.0000
  Br  Br4       1.0  0.2329810449127516  0.7670189297375269  0.7670189981306638  1.0000
  Br  Br5       1.0  0.23298105041253767  0.7670189428008787  0.23298102397431528  1.0000
  Br  Br6       1.0  0.7670189388142714  0.23298113803354617  0.7670189041748615  1.0000
