data_image0
_chemical_formula_structural       Hg2ZrF6
_chemical_formula_sum              "Hg2 Zr1 F6"
_cell_length_a       6.565456499032686
_cell_length_b       6.565456456734082
_cell_length_c       6.5654565813306665
_cell_angle_alpha    59.99999648594513
_cell_angle_beta     59.999995466594065
_cell_angle_gamma    59.999994787998574

_space_group_name_H-M_alt    "P 1"
_space_group_IT_number       1

loop_
  _space_group_symop_operation_xyz
  'x, y, z'

loop_
  _atom_site_type_symbol
  _atom_site_label
  _atom_site_symmetry_multiplicity
  _atom_site_fract_x
  _atom_site_fract_y
  _atom_site_fract_z
  _atom_site_occupancy
  Hg  Hg1       1.0  0.24999995587784235  0.25000001255082743  0.25000006337413055  1.0000
  Hg  Hg2       1.0  0.750000080070624  0.7499999649004115  0.7500000349849679  1.0000
  Zr  Zr1       1.0  1.218626373746791e-08  3.73087491958351e-08  1.047179742104258e-07  1.0000
  F   F1        1.0  0.21994888708006755  0.21994895441088919  0.7800510536995255  1.0000
  F   F2        1.0  0.7800511059816408  0.780051120043108  0.2199488850898439  1.0000
  F   F3        1.0  0.7800511191802484  0.21994893342505054  0.21994882577347  1.0000
  F   F4        1.0  0.2199488192717888  0.7800511149128241  0.7800510345751797  1.0000
  F   F5        1.0  0.21994886825658916  0.7800509902103506  0.2199489615683793  1.0000
  F   F6        1.0  0.7800511272955158  0.21994889210357527  0.7800510491989816  1.0000
