data_image0
_chemical_formula_structural       Hg2ZnI6
_chemical_formula_sum              "Hg2 Zn1 I6"
_cell_length_a       7.788824437504381
_cell_length_b       7.788824528737346
_cell_length_c       7.78882442310443
_cell_angle_alpha    59.99999957914597
_cell_angle_beta     59.999998049223244
_cell_angle_gamma    59.99999961488826

_space_group_name_H-M_alt    "P 1"
_space_group_IT_number       1

loop_
  _space_group_symop_operation_xyz
  'x, y, z'

loop_
  _atom_site_type_symbol
  _atom_site_label
  _atom_site_symmetry_multiplicity
  _atom_site_fract_x
  _atom_site_fract_y
  _atom_site_fract_z
  _atom_site_occupancy
  Hg  Hg1       1.0  0.2500000070833955  0.2499999975427557  0.24999996636573985  1.0000
  Hg  Hg2       1.0  0.7499999851458123  0.7499999942007054  0.7500000126549978  1.0000
  Zn  Zn1       1.0  1.0539438511761736e-07  0.9999999150883128  1.800424754630956e-08  1.0000
  I   I1        1.0  0.2531145361973511  0.253114560241699  0.7468854278955247  1.0000
  I   I2        1.0  0.7468854864605486  0.7468854425088326  0.2531145958857619  1.0000
  I   I3        1.0  0.7468853540234349  0.2531146407502489  0.2531146075836989  1.0000
  I   I4        1.0  0.25311457938325355  0.7468854296151444  0.746885429583545  1.0000
  I   I5        1.0  0.25311458155113964  0.7468853819825532  0.2531145915179952  1.0000
  I   I6        1.0  0.7468853666215741  0.2531146396372424  0.746885353508317  1.0000
