data_image0
_chemical_formula_structural       Hg2ZrI6
_chemical_formula_sum              "Hg2 Zr1 I6"
_cell_length_a       8.809236089716068
_cell_length_b       8.809235253189716
_cell_length_c       8.809235733089057
_cell_angle_alpha    59.99999920331757
_cell_angle_beta     60.00000110528639
_cell_angle_gamma    60.00000265429792

_space_group_name_H-M_alt    "P 1"
_space_group_IT_number       1

loop_
  _space_group_symop_operation_xyz
  'x, y, z'

loop_
  _atom_site_type_symbol
  _atom_site_label
  _atom_site_symmetry_multiplicity
  _atom_site_fract_x
  _atom_site_fract_y
  _atom_site_fract_z
  _atom_site_occupancy
  Hg  Hg1       1.0  0.2499999905792808  0.25000002201904875  0.24999992857559514  1.0000
  Hg  Hg2       1.0  0.7499999478280204  0.7499999451013544  0.7500001181140381  1.0000
  Zr  Zr1       1.0  1.826760411686315e-07  0.9999999749746697  0.9999996952753651  1.0000
  I   I1        1.0  0.22966333617118462  0.22966323316648485  0.7703367265361447  1.0000
  I   I2        1.0  0.7703367123283242  0.7703367575889637  0.22966323172158912  1.0000
  I   I3        1.0  0.7703366156665014  0.2296633724488879  0.2296634010576658  1.0000
  I   I4        1.0  0.22966301467461303  0.7703369172202857  0.7703368200182396  1.0000
  I   I5        1.0  0.2296635259310455  0.7703365866410965  0.22966330416216274  1.0000
  I   I6        1.0  0.7703366722001208  0.2296631872281093  0.7703367569683696  1.0000
