data_image0
_chemical_formula_structural       Hg2ZrCl6
_chemical_formula_sum              "Hg2 Zr1 Cl6"
_cell_length_a       7.7897132854818185
_cell_length_b       7.789713439614312
_cell_length_c       7.7897134818956815
_cell_angle_alpha    59.999995363006896
_cell_angle_beta     59.99999541081627
_cell_angle_gamma    59.99999433487111

_space_group_name_H-M_alt    "P 1"
_space_group_IT_number       1

loop_
  _space_group_symop_operation_xyz
  'x, y, z'

loop_
  _atom_site_type_symbol
  _atom_site_label
  _atom_site_symmetry_multiplicity
  _atom_site_fract_x
  _atom_site_fract_y
  _atom_site_fract_z
  _atom_site_occupancy
  Hg  Hg1       1.0  0.24999996667936586  0.24999992020300513  0.25000005119054003  1.0000
  Hg  Hg2       1.0  0.7500000347177196  0.7499999791530525  0.75000000135092  1.0000
  Zr  Zr1       1.0  0.9999999929171204  3.458970774866159e-08  0.9999999053706964  1.0000
  Cl  Cl1       1.0  0.22584570052006836  0.225845949857831  0.7741541387266452  1.0000
  Cl  Cl2       1.0  0.7741541348341725  0.7741542875339826  0.22584579572474608  1.0000
  Cl  Cl3       1.0  0.7741541088727529  0.22584592916094356  0.2258457714268632  1.0000
  Cl  Cl4       1.0  0.22584595091875787  0.7741540173628968  0.7741540755679223  1.0000
  Cl  Cl5       1.0  0.2258457310659589  0.7741542055207727  0.22584587187345173  1.0000
  Cl  Cl6       1.0  0.7741543820307304  0.22584569226301313  0.7741543733669822  1.0000
