data_image0
_chemical_formula_structural       Hg2ZnF6
_chemical_formula_sum              "Hg2 Zn1 F6"
_cell_length_a       5.4931113941514464
_cell_length_b       5.4931112248613365
_cell_length_c       5.493111018836556
_cell_angle_alpha    60.000004247109324
_cell_angle_beta     60.00000346018719
_cell_angle_gamma    60.000002136576455

_space_group_name_H-M_alt    "P 1"
_space_group_IT_number       1

loop_
  _space_group_symop_operation_xyz
  'x, y, z'

loop_
  _atom_site_type_symbol
  _atom_site_label
  _atom_site_symmetry_multiplicity
  _atom_site_fract_x
  _atom_site_fract_y
  _atom_site_fract_z
  _atom_site_occupancy
  Hg  Hg1       1.0  0.24999994352309232  0.24999983001204484  0.2500000830561775  1.0000
  Hg  Hg2       1.0  0.749999953608624  0.7499999092011843  0.7499998124043006  1.0000
  Zn  Zn1       1.0  2.989553174404503e-08  4.905122902740727e-08  0.9999999350401527  1.0000
  F   F1        1.0  0.2517251514242827  0.2517250880165359  0.7482748666482412  1.0000
  F   F2        1.0  0.748274846858942  0.7482748585496295  0.2517252259091909  1.0000
  F   F3        1.0  0.7482748443155885  0.25172515618360114  0.25172525062104933  1.0000
  F   F4        1.0  0.25172518993252874  0.7482750356387144  0.7482747413760318  1.0000
  F   F5        1.0  0.25172540400046256  0.7482747601038431  0.25172499901248196  1.0000
  F   F6        1.0  0.7482746798926939  0.2517253269272075  0.7482749786870836  1.0000
