data_image0
_chemical_formula_structural       In2AuI6
_chemical_formula_sum              "In2 Au1 I6"
_cell_length_a       7.834306861799059
_cell_length_b       7.834306861262725
_cell_length_c       7.834306832976662
_cell_angle_alpha    60.000000320161796
_cell_angle_beta     60.00000030103821
_cell_angle_gamma    60.00000005601039

_space_group_name_H-M_alt    "P 1"
_space_group_IT_number       1

loop_
  _space_group_symop_operation_xyz
  'x, y, z'

loop_
  _atom_site_type_symbol
  _atom_site_label
  _atom_site_symmetry_multiplicity
  _atom_site_fract_x
  _atom_site_fract_y
  _atom_site_fract_z
  _atom_site_occupancy
  In  In1       1.0  0.2499999900383678  0.2500000072750118  0.24999999485101324  1.0000
  In  In2       1.0  0.7500000022140119  0.74999998743222  0.7500000099522985  1.0000
  Au  Au1       1.0  3.04461914697534e-08  0.9999999749870432  0.9999999743075146  1.0000
  I   I1        1.0  0.25962996142508254  0.2596299495171642  0.7403700474475424  1.0000
  I   I2        1.0  0.7403700408763936  0.7403700592598558  0.2596299376377042  1.0000
  I   I3        1.0  0.7403700563838523  0.259629959241846  0.25962994386289046  1.0000
  I   I4        1.0  0.2596299248359513  0.740370072984821  0.7403700745021711  1.0000
  I   I5        1.0  0.2596299378459883  0.7403700534569726  0.25962994844334364  1.0000
  I   I6        1.0  0.7403700520690965  0.25962993499702003  0.7403700644845463  1.0000
