data_image0
_chemical_formula_structural       In2AgBr6
_chemical_formula_sum              "In2 Ag1 Br6"
_cell_length_a       7.402595816888258
_cell_length_b       7.4025957457565035
_cell_length_c       7.4025957553326585
_cell_angle_alpha    59.99999989707082
_cell_angle_beta     60.000000165772526
_cell_angle_gamma    59.999999539787524

_space_group_name_H-M_alt    "P 1"
_space_group_IT_number       1

loop_
  _space_group_symop_operation_xyz
  'x, y, z'

loop_
  _atom_site_type_symbol
  _atom_site_label
  _atom_site_symmetry_multiplicity
  _atom_site_fract_x
  _atom_site_fract_y
  _atom_site_fract_z
  _atom_site_occupancy
  In  In1       1.0  0.2500000044429067  0.24999999351661004  0.25000000236624165  1.0000
  In  In2       1.0  0.7500000119418693  0.7499999987491134  0.7499999716749586  1.0000
  Ag  Ag1       1.0  0.9999999765399636  0.9999999487111111  8.465517498135473e-08  1.0000
  Br  Br1       1.0  0.2510255726851399  0.251025600747539  0.7489744284523725  1.0000
  Br  Br2       1.0  0.7489744469761274  0.7489744378436324  0.25102555320891795  1.0000
  Br  Br3       1.0  0.7489744602906765  0.25102553803253086  0.2510255624558475  1.0000
  Br  Br4       1.0  0.2510255735364121  0.7489744393428699  0.7489744103093581  1.0000
  Br  Br5       1.0  0.25102552924496335  0.7489744709117978  0.2510255590223254  1.0000
  Br  Br6       1.0  0.7489744205849016  0.25102557595177544  0.7489744264009155  1.0000
