data_image0
_chemical_formula_structural       In2AuCl6
_chemical_formula_sum              "In2 Au1 Cl6"
_cell_length_a       7.126910315470807
_cell_length_b       7.12691023461954
_cell_length_c       7.1269103326850765
_cell_angle_alpha    60.000001214014574
_cell_angle_beta     60.000001486244805
_cell_angle_gamma    59.999998491289624

_space_group_name_H-M_alt    "P 1"
_space_group_IT_number       1

loop_
  _space_group_symop_operation_xyz
  'x, y, z'

loop_
  _atom_site_type_symbol
  _atom_site_label
  _atom_site_symmetry_multiplicity
  _atom_site_fract_x
  _atom_site_fract_y
  _atom_site_fract_z
  _atom_site_occupancy
  In  In1       1.0  0.24999997896693307  0.2500000822969024  0.24999991846559436  1.0000
  In  In2       1.0  0.7499999929732454  0.750000025206861  0.750000036044173  1.0000
  Au  Au1       1.0  0.999999987251843  0.9999999604749731  1.4911530712570977e-08  1.0000
  Cl  Cl1       1.0  0.24662902903702164  0.2466290079177209  0.7533709254383762  1.0000
  Cl  Cl2       1.0  0.7533710103478138  0.7533709896033559  0.2466289717649813  1.0000
  Cl  Cl3       1.0  0.7533710529762523  0.2466289783760522  0.24662897182777127  1.0000
  Cl  Cl4       1.0  0.24662895295725515  0.7533710174265479  0.7533710916925406  1.0000
  Cl  Cl5       1.0  0.24662894411286493  0.7533710005258658  0.24662898611339681  1.0000
  Cl  Cl6       1.0  0.7533710482216772  0.24662894372235114  0.7533710819209372  1.0000
