data_image0
_chemical_formula_structural       In2AuF6
_chemical_formula_sum              "In2 Au1 F6"
_cell_length_a       5.906693842199043
_cell_length_b       5.906694919659593
_cell_length_c       5.906694141228947
_cell_angle_alpha    59.99999864030849
_cell_angle_beta     60.00000036925037
_cell_angle_gamma    59.99999981427601

_space_group_name_H-M_alt    "P 1"
_space_group_IT_number       1

loop_
  _space_group_symop_operation_xyz
  'x, y, z'

loop_
  _atom_site_type_symbol
  _atom_site_label
  _atom_site_symmetry_multiplicity
  _atom_site_fract_x
  _atom_site_fract_y
  _atom_site_fract_z
  _atom_site_occupancy
  In  In1       1.0  0.24999983751669172  0.2500000728863615  0.25000004621545496  1.0000
  In  In2       1.0  0.7499999508479682  0.7499999242240716  0.7500000599429669  1.0000
  Au  Au1       1.0  0.9999999754942634  2.0734862373244002e-08  0.9999999680255481  1.0000
  F   F1        1.0  0.25049989119014276  0.2504999478276577  0.749500105492092  1.0000
  F   F2        1.0  0.7495001545507163  0.7495000161069922  0.25049990041708775  1.0000
  F   F3        1.0  0.749500128854276  0.25050001558882695  0.25049993818003347  1.0000
  F   F4        1.0  0.2504999296018766  0.7495000333587413  0.7495000764268458  1.0000
  F   F5        1.0  0.25049993974030604  0.7494999721112238  0.2504999591727859  1.0000
  F   F6        1.0  0.7495001871780881  0.25050000633783004  0.7494999345566384  1.0000
