data_image0
_chemical_formula_structural       In2AuBr6
_chemical_formula_sum              "In2 Au1 Br6"
_cell_length_a       7.3691556459921825
_cell_length_b       7.369155750202392
_cell_length_c       7.369155664060333
_cell_angle_alpha    60.0000002037661
_cell_angle_beta     59.99999969919971
_cell_angle_gamma    60.00000041527326

_space_group_name_H-M_alt    "P 1"
_space_group_IT_number       1

loop_
  _space_group_symop_operation_xyz
  'x, y, z'

loop_
  _atom_site_type_symbol
  _atom_site_label
  _atom_site_symmetry_multiplicity
  _atom_site_fract_x
  _atom_site_fract_y
  _atom_site_fract_z
  _atom_site_occupancy
  In  In1       1.0  0.2500000107509081  0.24999997879936572  0.2500000055456864  1.0000
  In  In2       1.0  0.7499999839138939  0.7500000062015945  0.7499999936916576  1.0000
  Au  Au1       1.0  0.9999999914999586  3.49017486022225e-08  1.122528260193311e-08  1.0000
  Br  Br1       1.0  0.2546276488769647  0.2546276558828888  0.7453723503653358  1.0000
  Br  Br2       1.0  0.7453723419261732  0.7453723124981911  0.25462767268285635  1.0000
  Br  Br3       1.0  0.7453723334953146  0.2546276751910093  0.2546276791792918  1.0000
  Br  Br4       1.0  0.2546276870633255  0.7453723214438672  0.7453723053651978  1.0000
  Br  Br5       1.0  0.25462768250140644  0.7453723336880087  0.2546276674220822  1.0000
  Br  Br6       1.0  0.745372319886724  0.2546276845527121  0.7453723126907249  1.0000
