data_image0
_chemical_formula_structural       In2AgF6
_chemical_formula_sum              "In2 Ag1 F6"
_cell_length_a       5.732591207205877
_cell_length_b       5.73259141268091
_cell_length_c       5.732591550994988
_cell_angle_alpha    60.00000154685553
_cell_angle_beta     60.0000003210219
_cell_angle_gamma    60.00000064112794

_space_group_name_H-M_alt    "P 1"
_space_group_IT_number       1

loop_
  _space_group_symop_operation_xyz
  'x, y, z'

loop_
  _atom_site_type_symbol
  _atom_site_label
  _atom_site_symmetry_multiplicity
  _atom_site_fract_x
  _atom_site_fract_y
  _atom_site_fract_z
  _atom_site_occupancy
  In  In1       1.0  0.2499999804165668  0.24999998880034938  0.24999996914107325  1.0000
  In  In2       1.0  0.7500001410502783  0.7499999108531034  0.7499998335524941  1.0000
  Ag  Ag1       1.0  0.9999999798572671  2.089781617143372e-16  1.1815777744719495e-08  1.0000
  F   F1        1.0  0.25650908747432277  0.2565092915040628  0.7434908315621481  1.0000
  F   F2        1.0  0.7434908527252996  0.7434907833390629  0.2565092689757781  1.0000
  F   F3        1.0  0.7434908514017171  0.25650914398349944  0.25650918872390494  1.0000
  F   F4        1.0  0.2565091632667196  0.743490828309575  0.7434908107234646  1.0000
  F   F5        1.0  0.2565091246438292  0.7434908196052774  0.2565092545611828  1.0000
  F   F6        1.0  0.7434907746803598  0.25650925096492966  0.7434908528512129  1.0000
