data_image0
_chemical_formula_structural       In2AgI6
_chemical_formula_sum              "In2 Ag1 I6"
_cell_length_a       7.845710295222802
_cell_length_b       7.84571018739121
_cell_length_c       7.845710229889367
_cell_angle_alpha    60.00000049477364
_cell_angle_beta     59.999999720567935
_cell_angle_gamma    60.00000033766773

_space_group_name_H-M_alt    "P 1"
_space_group_IT_number       1

loop_
  _space_group_symop_operation_xyz
  'x, y, z'

loop_
  _atom_site_type_symbol
  _atom_site_label
  _atom_site_symmetry_multiplicity
  _atom_site_fract_x
  _atom_site_fract_y
  _atom_site_fract_z
  _atom_site_occupancy
  In  In1       1.0  0.24999999229880832  0.24999999579482005  0.24999999662582448  1.0000
  In  In2       1.0  0.7500000048598715  0.7499999873844606  0.7500000052111326  1.0000
  Ag  Ag1       1.0  1.2725497537534696e-08  1.5610374719700583e-09  0.9999999737380044  1.0000
  I   I1        1.0  0.25944317444794757  0.25944321046640023  0.7405567975937217  1.0000
  I   I2        1.0  0.7405568173287193  0.740556797689482  0.25944318934761396  1.0000
  I   I3        1.0  0.7405567780767611  0.25944321479344984  0.25944320391439335  1.0000
  I   I4        1.0  0.2594431883228702  0.740556812094884  0.7405568194883628  1.0000
  I   I5        1.0  0.25944320938885196  0.7405567746285077  0.25944320898520534  1.0000
  I   I6        1.0  0.74055682032711  0.25944319918454767  0.7405568105716063  1.0000
