data_image0
_chemical_formula_structural       In2AgCl6
_chemical_formula_sum              "In2 Ag1 Cl6"
_cell_length_a       7.169516216652459
_cell_length_b       7.169516141690217
_cell_length_c       7.169516141370888
_cell_angle_alpha    60.0000007468452
_cell_angle_beta     60.00000081874119
_cell_angle_gamma    60.000001072652864

_space_group_name_H-M_alt    "P 1"
_space_group_IT_number       1

loop_
  _space_group_symop_operation_xyz
  'x, y, z'

loop_
  _atom_site_type_symbol
  _atom_site_label
  _atom_site_symmetry_multiplicity
  _atom_site_fract_x
  _atom_site_fract_y
  _atom_site_fract_z
  _atom_site_occupancy
  In  In1       1.0  0.25000002737424004  0.24999999052555785  0.2500000197545172  1.0000
  In  In2       1.0  0.7499999969076367  0.750000048448692  0.7499999671942795  1.0000
  Ag  Ag1       1.0  0.9999999928096663  0.9999999829173288  7.952119513713236e-09  1.0000
  Cl  Cl1       1.0  0.2429665573595422  0.24296656442845943  0.7570334495178069  1.0000
  Cl  Cl2       1.0  0.7570334754469079  0.757033477962325  0.24296655656673297  1.0000
  Cl  Cl3       1.0  0.7570334311204929  0.24296656700186026  0.24296657694129395  1.0000
  Cl  Cl4       1.0  0.24296654606407395  0.7570334924715941  0.7570333605408136  1.0000
  Cl  Cl5       1.0  0.24296654284732563  0.7570333643400787  0.2429666499742719  1.0000
  Cl  Cl6       1.0  0.7570334146392531  0.24296651747359652  0.7570334238461635  1.0000
