data_image0
_chemical_formula_structural       In2BeI6
_chemical_formula_sum              "In2 Be1 I6"
_cell_length_a       7.812443073758122
_cell_length_b       7.812443019821838
_cell_length_c       7.812443164367416
_cell_angle_alpha    60.00000023003925
_cell_angle_beta     60.00000028703203
_cell_angle_gamma    59.99999956975222

_space_group_name_H-M_alt    "P 1"
_space_group_IT_number       1

loop_
  _space_group_symop_operation_xyz
  'x, y, z'

loop_
  _atom_site_type_symbol
  _atom_site_label
  _atom_site_symmetry_multiplicity
  _atom_site_fract_x
  _atom_site_fract_y
  _atom_site_fract_z
  _atom_site_occupancy
  In  In1       1.0  0.2500000090838694  0.2500000048270488  0.25000001098333025  1.0000
  In  In2       1.0  0.7499999877034962  0.7499999956689277  0.749999994289662  1.0000
  Be  Be1       1.0  0.9999999805012878  4.075980689381261e-08  1.36896297163003e-08  1.0000
  I   I1        1.0  0.23622385920851646  0.23622386630777933  0.7637761406635228  1.0000
  I   I2        1.0  0.763776162720699  0.7637761075375544  0.23622387304392178  1.0000
  I   I3        1.0  0.7637761360158433  0.23622387570329575  0.2362238246347563  1.0000
  I   I4        1.0  0.2362238671908108  0.7637761498756386  0.76377615208702  1.0000
  I   I5        1.0  0.23622385436368934  0.7637761022814558  0.2362238349349346  1.0000
  I   I6        1.0  0.7637761431409358  0.23622386059008388  0.7637761657514786  1.0000
