data_image0
_chemical_formula_structural       In2BeF6
_chemical_formula_sum              "In2 Be1 F6"
_cell_length_a       5.2343040454434515
_cell_length_b       5.234304006474122
_cell_length_c       5.234304150660149
_cell_angle_alpha    59.99999928420846
_cell_angle_beta     59.9999988299783
_cell_angle_gamma    59.999999189016755

_space_group_name_H-M_alt    "P 1"
_space_group_IT_number       1

loop_
  _space_group_symop_operation_xyz
  'x, y, z'

loop_
  _atom_site_type_symbol
  _atom_site_label
  _atom_site_symmetry_multiplicity
  _atom_site_fract_x
  _atom_site_fract_y
  _atom_site_fract_z
  _atom_site_occupancy
  In  In1       1.0  0.24999996768885466  0.2500000174568432  0.2500000191971459  1.0000
  In  In2       1.0  0.7500000213011083  0.7500000219525719  0.7499999296223048  1.0000
  Be  Be1       1.0  2.1146484238527368e-08  9.359371476659748e-09  9.583229138262166e-09  1.0000
  F   F1        1.0  0.23634581579022082  0.23634578936415815  0.7636541967436188  1.0000
  F   F2        1.0  0.7636542004979084  0.7636541681507574  0.23634582713583877  1.0000
  F   F3        1.0  0.763654200197138  0.23634578981002155  0.2363458220585458  1.0000
  F   F4        1.0  0.2363457905094972  0.7636541981228511  0.7636541936712594  1.0000
  F   F5        1.0  0.23634578665388606  0.7636541912685234  0.23634581751922412  1.0000
  F   F6        1.0  0.7636541998853754  0.2363458224026207  0.7636541969775004  1.0000
