data_image0
_chemical_formula_structural       In2BeCl6
_chemical_formula_sum              "In2 Be1 Cl6"
_cell_length_a       7.091664409045273
_cell_length_b       7.09166328008545
_cell_length_c       7.091664030927837
_cell_angle_alpha    59.99999726734244
_cell_angle_beta     59.999999652826055
_cell_angle_gamma    59.999997771296336

_space_group_name_H-M_alt    "P 1"
_space_group_IT_number       1

loop_
  _space_group_symop_operation_xyz
  'x, y, z'

loop_
  _atom_site_type_symbol
  _atom_site_label
  _atom_site_symmetry_multiplicity
  _atom_site_fract_x
  _atom_site_fract_y
  _atom_site_fract_z
  _atom_site_occupancy
  In  In1       1.0  0.2500000897088859  0.2500006210464536  0.249999577863013  1.0000
  In  In2       1.0  0.749999943017712  0.7499998373440818  0.7500000970852801  1.0000
  Be  Be1       1.0  0.9999999335041513  4.3175514773217374e-08  0.9999999383346416  1.0000
  Cl  Cl1       1.0  0.2345592033325032  0.2345590659008754  0.7654409813238486  1.0000
  Cl  Cl2       1.0  0.7654407854879999  0.7654409624615114  0.2345592535059031  1.0000
  Cl  Cl3       1.0  0.7654410069347819  0.23455892049417879  0.23455904674609748  1.0000
  Cl  Cl4       1.0  0.23455920434117733  0.7654405137730897  0.7654411468763669  1.0000
  Cl  Cl5       1.0  0.23455898576066664  0.7654408174968166  0.23455904283358223  1.0000
  Cl  Cl6       1.0  0.7654408672575669  0.23455918841429269  0.7654409397479689  1.0000
