data_image0
_chemical_formula_structural       In2BeBr6
_chemical_formula_sum              "In2 Be1 Br6"
_cell_length_a       7.3579585081057814
_cell_length_b       7.357958382015209
_cell_length_c       7.357958310534214
_cell_angle_alpha    59.99999867827643
_cell_angle_beta     59.99999937263612
_cell_angle_gamma    59.99999571926737

_space_group_name_H-M_alt    "P 1"
_space_group_IT_number       1

loop_
  _space_group_symop_operation_xyz
  'x, y, z'

loop_
  _atom_site_type_symbol
  _atom_site_label
  _atom_site_symmetry_multiplicity
  _atom_site_fract_x
  _atom_site_fract_y
  _atom_site_fract_z
  _atom_site_occupancy
  In  In1       1.0  0.24999975650693396  0.2499998125289025  0.2500001286130185  1.0000
  In  In2       1.0  0.7500001211156697  0.7499999053160367  0.7499999232424777  1.0000
  Be  Be1       1.0  0.9999999859549643  2.3303243096335742e-08  0.9999999722666609  1.0000
  Br  Br1       1.0  0.23685801236396045  0.2368580862232784  0.7631420034196801  1.0000
  Br  Br2       1.0  0.76314195879497  0.763141911260562  0.23685808065889635  1.0000
  Br  Br3       1.0  0.763142016561631  0.23685813025863664  0.23685796590213826  1.0000
  Br  Br4       1.0  0.23685811219305186  0.7631419970575486  0.7631419105859709  1.0000
  Br  Br5       1.0  0.23685811782627042  0.7631419289429919  0.23685804260204033  1.0000
  Br  Br6       1.0  0.763141913075613  0.23685820003771307  0.7631419676017877  1.0000
