data_image0
_chemical_formula_structural       In2CoI6
_chemical_formula_sum              "In2 Co1 I6"
_cell_length_a       7.749851300196432
_cell_length_b       7.749851247807478
_cell_length_c       7.749851176250344
_cell_angle_alpha    59.999999717673276
_cell_angle_beta     60.00000053887382
_cell_angle_gamma    59.99999834295406

_space_group_name_H-M_alt    "P 1"
_space_group_IT_number       1

loop_
  _space_group_symop_operation_xyz
  'x, y, z'

loop_
  _atom_site_type_symbol
  _atom_site_label
  _atom_site_symmetry_multiplicity
  _atom_site_fract_x
  _atom_site_fract_y
  _atom_site_fract_z
  _atom_site_occupancy
  In  In1       1.0  0.24999999092731948  0.250000034259032  0.24999999429886882  1.0000
  In  In2       1.0  0.749999987126473  0.7500000016349314  0.750000037908558  1.0000
  Co  Co1       1.0  1.324442715104746e-08  0.9999999826161907  0.9999999491654494  1.0000
  I   I1        1.0  0.243992671835538  0.2439927253676742  0.756007275009564  1.0000
  I   I2        1.0  0.756007343030973  0.7560073073655966  0.24399265520892427  1.0000
  I   I3        1.0  0.7560072628590508  0.24399274527785084  0.24399269732752124  1.0000
  I   I4        1.0  0.24399267636527616  0.7560072953571523  0.7560073454723817  1.0000
  I   I5        1.0  0.2439927341835372  0.7560072513773284  0.2439926908190014  1.0000
  I   I6        1.0  0.7560073092350982  0.24399266441031428  0.756007350694302  1.0000
