data_image0
_chemical_formula_structural       In2CdBr6
_chemical_formula_sum              "In2 Cd1 Br6"
_cell_length_a       7.511664629721867
_cell_length_b       7.511664663498375
_cell_length_c       7.511664668510862
_cell_angle_alpha    60.00000010590705
_cell_angle_beta     60.000000477159276
_cell_angle_gamma    60.00000030399997

_space_group_name_H-M_alt    "P 1"
_space_group_IT_number       1

loop_
  _space_group_symop_operation_xyz
  'x, y, z'

loop_
  _atom_site_type_symbol
  _atom_site_label
  _atom_site_symmetry_multiplicity
  _atom_site_fract_x
  _atom_site_fract_y
  _atom_site_fract_z
  _atom_site_occupancy
  In  In1       1.0  0.24999998631842904  0.25000003384494585  0.24999999481166643  1.0000
  In  In2       1.0  0.7499999960055668  0.7499999857723675  0.7499999758656326  1.0000
  Cd  Cd1       1.0  1.3182157616883497e-08  3.4239603858863394e-08  1.755826723583776e-08  1.0000
  Br  Br1       1.0  0.26022273358796777  0.26022276764776714  0.7397772457813491  1.0000
  Br  Br2       1.0  0.7397772317334718  0.739777256860918  0.26022275358301034  1.0000
  Br  Br3       1.0  0.7397772378509345  0.2602227472191807  0.26022273453132594  1.0000
  Br  Br4       1.0  0.2602227963359561  0.7397771859838943  0.739777237446491  1.0000
  Br  Br5       1.0  0.2602227335122955  0.739777245158818  0.2602227890967512  1.0000
  Br  Br6       1.0  0.7397772746032771  0.26022273858843403  0.7397772545141947  1.0000
