data_image0
_chemical_formula_structural       In2CoBr6
_chemical_formula_sum              "In2 Co1 Br6"
_cell_length_a       7.357516251358357
_cell_length_b       7.357516108244133
_cell_length_c       7.357516141826916
_cell_angle_alpha    60.00000020864377
_cell_angle_beta     60.00000117091114
_cell_angle_gamma    60.00000139464051

_space_group_name_H-M_alt    "P 1"
_space_group_IT_number       1

loop_
  _space_group_symop_operation_xyz
  'x, y, z'

loop_
  _atom_site_type_symbol
  _atom_site_label
  _atom_site_symmetry_multiplicity
  _atom_site_fract_x
  _atom_site_fract_y
  _atom_site_fract_z
  _atom_site_occupancy
  In  In1       1.0  0.25000000186340277  0.2500000110390888  0.2499999736394651  1.0000
  In  In2       1.0  0.7500000454593534  0.750000054757292  0.7499999757905337  1.0000
  Co  Co1       1.0  3.089830679987574e-09  8.48954827291799e-08  0.9999998934862439  1.0000
  Br  Br1       1.0  0.2385713889910684  0.23857137839182344  0.7614286056995311  1.0000
  Br  Br2       1.0  0.7614285941624936  0.7614285409182333  0.23857145313568923  1.0000
  Br  Br3       1.0  0.7614285742159618  0.2385714146929744  0.2385714063751485  1.0000
  Br  Br4       1.0  0.23857140808079105  0.7614285495617498  0.7614286263386799  1.0000
  Br  Br5       1.0  0.23857143439848955  0.7614285587582713  0.23857140299142585  1.0000
  Br  Br6       1.0  0.7614285368171488  0.2385714104903043  0.7614286517941946  1.0000
