data_image0
_chemical_formula_structural       In2CI6
_chemical_formula_sum              "In2 C1 I6"
_cell_length_a       7.765967022198555
_cell_length_b       7.765967060084782
_cell_length_c       7.765967079254985
_cell_angle_alpha    60.000000174410076
_cell_angle_beta     59.9999998798561
_cell_angle_gamma    60.00000012098851

_space_group_name_H-M_alt    "P 1"
_space_group_IT_number       1

loop_
  _space_group_symop_operation_xyz
  'x, y, z'

loop_
  _atom_site_type_symbol
  _atom_site_label
  _atom_site_symmetry_multiplicity
  _atom_site_fract_x
  _atom_site_fract_y
  _atom_site_fract_z
  _atom_site_occupancy
  In  In1       1.0  0.24999998939060059  0.25000000552430546  0.2500000020188401  1.0000
  In  In2       1.0  0.7500000072814653  0.7499999929169147  0.7499999983296896  1.0000
  C   C1        1.0  5.3316084577848386e-09  6.308267108080019e-09  0.9999999864540444  1.0000
  I   I1        1.0  0.2422993241614744  0.24229935366365724  0.7577006644526484  1.0000
  I   I2        1.0  0.7577006636795487  0.7577006400463625  0.24229934525234212  1.0000
  I   I3        1.0  0.7577006577872837  0.24229935760939927  0.2422993492620531  1.0000
  I   I4        1.0  0.2422993442163908  0.7577006471400881  0.757700650417217  1.0000
  I   I5        1.0  0.2422993449582591  0.7577006474603692  0.24229935869447514  1.0000
  I   I6        1.0  0.7577006625574116  0.24229935413498457  0.7577006385181942  1.0000
