data_image0
_chemical_formula_structural       In2CF6
_chemical_formula_sum              "In2 C1 F6"
_cell_length_a       5.680936426884641
_cell_length_b       5.680937911028775
_cell_length_c       5.680936690077798
_cell_angle_alpha    59.99999633070436
_cell_angle_beta     59.99999785171884
_cell_angle_gamma    59.99999621478307

_space_group_name_H-M_alt    "P 1"
_space_group_IT_number       1

loop_
  _space_group_symop_operation_xyz
  'x, y, z'

loop_
  _atom_site_type_symbol
  _atom_site_label
  _atom_site_symmetry_multiplicity
  _atom_site_fract_x
  _atom_site_fract_y
  _atom_site_fract_z
  _atom_site_occupancy
  In  In1       1.0  0.25000009609212237  0.24999995520182977  0.249999976581319  1.0000
  In  In2       1.0  0.7500000805401416  0.749999958308571  0.7499998957263214  1.0000
  C   C1        1.0  9.405178975863776e-07  0.9999997456055417  0.9999993260069552  1.0000
  F   F1        1.0  0.20517764083879894  0.2051774162570341  0.7948224766532539  1.0000
  F   F2        1.0  0.7948219601484519  0.7948219863086385  0.2051780392848678  1.0000
  F   F3        1.0  0.7948219506271652  0.20517809548298677  0.2051781020654703  1.0000
  F   F4        1.0  0.20517747491927135  0.7948226200166006  0.7948225721187825  1.0000
  F   F5        1.0  0.2051777284176548  0.7948223522202057  0.20517756071821058  1.0000
  F   F6        1.0  0.7948221333217441  0.2051779083877349  0.7948220701721096  1.0000
