data_image0
_chemical_formula_structural       In2CoF6
_chemical_formula_sum              "In2 Co1 F6"
_cell_length_a       5.4844456551912275
_cell_length_b       5.484445731967462
_cell_length_c       5.484445749063089
_cell_angle_alpha    59.99999964065611
_cell_angle_beta     60.00000031263753
_cell_angle_gamma    60.0000011035774

_space_group_name_H-M_alt    "P 1"
_space_group_IT_number       1

loop_
  _space_group_symop_operation_xyz
  'x, y, z'

loop_
  _atom_site_type_symbol
  _atom_site_label
  _atom_site_symmetry_multiplicity
  _atom_site_fract_x
  _atom_site_fract_y
  _atom_site_fract_z
  _atom_site_occupancy
  In  In1       1.0  0.24999998361226528  0.25000012515582615  0.2499998857958614  1.0000
  In  In2       1.0  0.7499999673664238  0.75000006059696  0.7499999378383878  1.0000
  Co  Co1       1.0  4.0024699295248126e-08  0.999999962036887  2.1959314173513495e-07  1.0000
  F   F1        1.0  0.24030117696881506  0.24030110954882045  0.7596988580427023  1.0000
  F   F2        1.0  0.7596988184826647  0.7596988417259206  0.2403011590544433  1.0000
  F   F3        1.0  0.7596988605168492  0.2403011527812649  0.24030114152340565  1.0000
  F   F4        1.0  0.24030134120280616  0.7596986913035151  0.7596988078012512  1.0000
  F   F5        1.0  0.24030116045516442  0.7596988218251438  0.24030115622347503  1.0000
  F   F6        1.0  0.7596986334279047  0.24030124780518003  0.7596988404865808  1.0000
