data_image0
_chemical_formula_structural       In2CoCl6
_chemical_formula_sum              "In2 Co1 Cl6"
_cell_length_a       7.064372100226803
_cell_length_b       7.064371751209629
_cell_length_c       7.06437192613579
_cell_angle_alpha    59.999999721987365
_cell_angle_beta     60.00000294100401
_cell_angle_gamma    59.99999905630454

_space_group_name_H-M_alt    "P 1"
_space_group_IT_number       1

loop_
  _space_group_symop_operation_xyz
  'x, y, z'

loop_
  _atom_site_type_symbol
  _atom_site_label
  _atom_site_symmetry_multiplicity
  _atom_site_fract_x
  _atom_site_fract_y
  _atom_site_fract_z
  _atom_site_occupancy
  In  In1       1.0  0.24999996139432007  0.2500000524950562  0.24999998491982478  1.0000
  In  In2       1.0  0.7500000600081503  0.749999880094355  0.7499999574134516  1.0000
  Co  Co1       1.0  0.9999999800710401  4.507600733097657e-08  0.9999999279732078  1.0000
  Cl  Cl1       1.0  0.22644970356221783  0.22644985944365956  0.7735502533348139  1.0000
  Cl  Cl2       1.0  0.7735502169434411  0.7735501355586848  0.2264498582891253  1.0000
  Cl  Cl3       1.0  0.773550155432108  0.22644983966343385  0.22644978001124375  1.0000
  Cl  Cl4       1.0  0.22644984050884695  0.7735502281539985  0.7735501852942502  1.0000
  Cl  Cl5       1.0  0.22644987183355522  0.7735501823831533  0.2264497835338821  1.0000
  Cl  Cl6       1.0  0.7735501989677258  0.22644978834749413  0.7735502296892465  1.0000
