data_image0
_chemical_formula_structural       In2CoI6
_chemical_formula_sum              "In2 Co1 I6"
_cell_length_a       7.756085654843748
_cell_length_b       7.756085697568364
_cell_length_c       7.75608565264405
_cell_angle_alpha    60.00000020837718
_cell_angle_beta     59.99999944771352
_cell_angle_gamma    60.00000052104956

_space_group_name_H-M_alt    "P 1"
_space_group_IT_number       1

loop_
  _space_group_symop_operation_xyz
  'x, y, z'

loop_
  _atom_site_type_symbol
  _atom_site_label
  _atom_site_symmetry_multiplicity
  _atom_site_fract_x
  _atom_site_fract_y
  _atom_site_fract_z
  _atom_site_occupancy
  In  In1       1.0  0.24999999932569383  0.25000002890157413  0.24999999435623352  1.0000
  In  In2       1.0  0.7500000131073478  0.7499999698530996  0.7499999978286943  1.0000
  Co  Co1       1.0  2.554320062964582e-10  1.2632607929449177e-08  2.0631493301171957e-08  1.0000
  I   I1        1.0  0.24416713938015122  0.24416715073521958  0.7558328561745462  1.0000
  I   I2        1.0  0.7558328740307931  0.7558328227542385  0.24416714944334836  1.0000
  I   I3        1.0  0.7558328580571599  0.24416714782974677  0.24416717285199468  1.0000
  I   I4        1.0  0.2441671509777918  0.7558328209224833  0.75583283732251  1.0000
  I   I5        1.0  0.24416715864409685  0.7558328244764514  0.24416718260403367  1.0000
  I   I6        1.0  0.7558328072604341  0.24416722007142572  0.7558327906088957  1.0000
