data_image0
_chemical_formula_structural       In2CuI6
_chemical_formula_sum              "In2 Cu1 I6"
_cell_length_a       7.763942280038913
_cell_length_b       7.763942199419159
_cell_length_c       7.763942211155389
_cell_angle_alpha    60.00000055556673
_cell_angle_beta     60.000000773009894
_cell_angle_gamma    59.999999156207416

_space_group_name_H-M_alt    "P 1"
_space_group_IT_number       1

loop_
  _space_group_symop_operation_xyz
  'x, y, z'

loop_
  _atom_site_type_symbol
  _atom_site_label
  _atom_site_symmetry_multiplicity
  _atom_site_fract_x
  _atom_site_fract_y
  _atom_site_fract_z
  _atom_site_occupancy
  In  In1       1.0  0.2499999764128564  0.2499999939470365  0.25000000584774135  1.0000
  In  In2       1.0  0.7500000026246848  0.750000007080758  0.7500000004304789  1.0000
  Cu  Cu1       1.0  0.9999999831143075  1.5774783489187836e-09  1.7958150722257062e-08  1.0000
  I   I1        1.0  0.2512180680642489  0.2512180587859083  0.7487819307582044  1.0000
  I   I2        1.0  0.7487819325759398  0.7487819532842327  0.2512180707895682  1.0000
  I   I3        1.0  0.7487819839832446  0.25121800254280674  0.25121804151499905  1.0000
  I   I4        1.0  0.2512180403783753  0.7487819874426407  0.7487819398943227  1.0000
  I   I5        1.0  0.2512180554427408  0.7487819707311885  0.2512180195890509  1.0000
  I   I6        1.0  0.7487819574564027  0.2512180224092155  0.7487819737020637  1.0000
