data_image0
_chemical_formula_structural       In2CuBr6
_chemical_formula_sum              "In2 Cu1 Br6"
_cell_length_a       7.3893721153754806
_cell_length_b       7.389372017576886
_cell_length_c       7.389371972526198
_cell_angle_alpha    60.00000048399845
_cell_angle_beta     59.99999957095327
_cell_angle_gamma    59.999999865516145

_space_group_name_H-M_alt    "P 1"
_space_group_IT_number       1

loop_
  _space_group_symop_operation_xyz
  'x, y, z'

loop_
  _atom_site_type_symbol
  _atom_site_label
  _atom_site_symmetry_multiplicity
  _atom_site_fract_x
  _atom_site_fract_y
  _atom_site_fract_z
  _atom_site_occupancy
  In  In1       1.0  0.24999999261238454  0.24999995812806827  0.25000003988957603  1.0000
  In  In2       1.0  0.7500000372313432  0.7500000102943719  0.7499999516452103  1.0000
  Cu  Cu1       1.0  5.286431374539583e-09  7.789973038854131e-08  0.999999971939869  1.0000
  Br  Br1       1.0  0.24004155054224027  0.24004156354758857  0.7599584290072826  1.0000
  Br  Br2       1.0  0.7599584477478436  0.7599584479683194  0.2400415567575921  1.0000
  Br  Br3       1.0  0.7599584289520335  0.24004156115867253  0.24004154958033658  1.0000
  Br  Br4       1.0  0.24004153331856362  0.7599584271530605  0.7599584671496643  1.0000
  Br  Br5       1.0  0.24004153906610753  0.7599584267046843  0.24004158735759865  1.0000
  Br  Br6       1.0  0.7599584607243629  0.24004153343055076  0.7599584477067288  1.0000
