data_image0
_chemical_formula_structural       In2CdI6
_chemical_formula_sum              "In2 Cd1 I6"
_cell_length_a       7.991639333433497
_cell_length_b       7.991639306482476
_cell_length_c       7.9916392383336845
_cell_angle_alpha    60.000000931291865
_cell_angle_beta     59.99999961070258
_cell_angle_gamma    60.00000026100784

_space_group_name_H-M_alt    "P 1"
_space_group_IT_number       1

loop_
  _space_group_symop_operation_xyz
  'x, y, z'

loop_
  _atom_site_type_symbol
  _atom_site_label
  _atom_site_symmetry_multiplicity
  _atom_site_fract_x
  _atom_site_fract_y
  _atom_site_fract_z
  _atom_site_occupancy
  In  In1       1.0  0.249999991107579  0.250000005035332  0.2500000167958066  1.0000
  In  In2       1.0  0.7500000050376138  0.7499999936505376  0.7500000052158627  1.0000
  Cd  Cd1       1.0  2.276243428696055e-09  3.2183185818045124e-08  0.9999998914248208  1.0000
  I   I1        1.0  0.2617793842088221  0.2617793676424565  0.7382206052486615  1.0000
  I   I2        1.0  0.7382205816964563  0.7382206003927585  0.2617793921507519  1.0000
  I   I3        1.0  0.7382205979070463  0.26177941377196395  0.261779403090026  1.0000
  I   I4        1.0  0.26177934617714743  0.7382206630730738  0.7382206271447909  1.0000
  I   I5        1.0  0.2617794355984411  0.738220570802748  0.2617794321579048  1.0000
  I   I6        1.0  0.7382206597781339  0.2617793512564868  0.7382206273523916  1.0000
