data_image0
_chemical_formula_structural       In2CrBr6
_chemical_formula_sum              "In2 Cr1 Br6"
_cell_length_a       7.386445633895671
_cell_length_b       7.386445843101333
_cell_length_c       7.386445746543485
_cell_angle_alpha    60.0000005183604
_cell_angle_beta     59.9999996731251
_cell_angle_gamma    59.99999887855234

_space_group_name_H-M_alt    "P 1"
_space_group_IT_number       1

loop_
  _space_group_symop_operation_xyz
  'x, y, z'

loop_
  _atom_site_type_symbol
  _atom_site_label
  _atom_site_symmetry_multiplicity
  _atom_site_fract_x
  _atom_site_fract_y
  _atom_site_fract_z
  _atom_site_occupancy
  In  In1       1.0  0.2500000344803746  0.24999996047438958  0.24999999716228644  1.0000
  In  In2       1.0  0.7499999806363752  0.7499999543794689  0.7500000258879012  1.0000
  Cr  Cr1       1.0  1.4061533679333172e-09  0.9999999535732651  3.7402432889818896e-08  1.0000
  Br  Br1       1.0  0.2363054657958588  0.23630542048694672  0.7636945564433757  1.0000
  Br  Br2       1.0  0.7636945288547485  0.7636945839041864  0.23630545779403686  1.0000
  Br  Br3       1.0  0.7636946029029326  0.23630543786545258  0.23630544713385973  1.0000
  Br  Br4       1.0  0.23630542602850613  0.7636945996876335  0.7636945293206673  1.0000
  Br  Br5       1.0  0.23630538098702863  0.7636946194250067  0.23630543716234037  1.0000
  Br  Br6       1.0  0.7636945856655729  0.23630545958052235  0.7636945036751263  1.0000
