data_image0
_chemical_formula_structural       In2CrCl6
_chemical_formula_sum              "In2 Cr1 Cl6"
_cell_length_a       7.073246275342013
_cell_length_b       7.073246442545491
_cell_length_c       7.073246488704766
_cell_angle_alpha    59.99999930078931
_cell_angle_beta     59.99999940103346
_cell_angle_gamma    59.999999841932585

_space_group_name_H-M_alt    "P 1"
_space_group_IT_number       1

loop_
  _space_group_symop_operation_xyz
  'x, y, z'

loop_
  _atom_site_type_symbol
  _atom_site_label
  _atom_site_symmetry_multiplicity
  _atom_site_fract_x
  _atom_site_fract_y
  _atom_site_fract_z
  _atom_site_occupancy
  In  In1       1.0  0.24999996302348773  0.2499999897369403  0.24999992670798102  1.0000
  In  In2       1.0  0.7499997970058784  0.7500000886855152  0.7499999770718037  1.0000
  Cr  Cr1       1.0  0.9999999949044756  1.0389103471145304e-08  6.804210849644098e-08  1.0000
  Cl  Cl1       1.0  0.23353292609194748  0.23353286343244287  0.7664670925478584  1.0000
  Cl  Cl2       1.0  0.7664672032763207  0.7664671942118032  0.233532793880935  1.0000
  Cl  Cl3       1.0  0.7664669995915349  0.23353299109303394  0.23353296842399687  1.0000
  Cl  Cl4       1.0  0.23353300196435006  0.7664670630881772  0.7664670189869542  1.0000
  Cl  Cl5       1.0  0.233533088733208  0.7664669334846734  0.2335329830347779  1.0000
  Cl  Cl6       1.0  0.7664670137768844  0.23353290598838894  0.7664671149767074  1.0000
