data_image0
_chemical_formula_structural       In2CrI6
_chemical_formula_sum              "In2 Cr1 I6"
_cell_length_a       7.871530015040351
_cell_length_b       7.8715301097418235
_cell_length_c       7.871530521032515
_cell_angle_alpha    59.99999787105012
_cell_angle_beta     59.99999832023941
_cell_angle_gamma    60.00000105772255

_space_group_name_H-M_alt    "P 1"
_space_group_IT_number       1

loop_
  _space_group_symop_operation_xyz
  'x, y, z'

loop_
  _atom_site_type_symbol
  _atom_site_label
  _atom_site_symmetry_multiplicity
  _atom_site_fract_x
  _atom_site_fract_y
  _atom_site_fract_z
  _atom_site_occupancy
  In  In1       1.0  0.24999998990851763  0.24999999290234332  0.2500000098865364  1.0000
  In  In2       1.0  0.749999994737128  0.750000000489871  0.7499999897471885  1.0000
  Cr  Cr1       1.0  0.9999999343718792  8.246360873963776e-08  0.9999999445774197  1.0000
  I   I1        1.0  0.2402506323394334  0.24025060788080996  0.7597494090616825  1.0000
  I   I2        1.0  0.7597493969955373  0.7597494010705769  0.24025062142704037  1.0000
  I   I3        1.0  0.7597493206690024  0.24025070338108626  0.2402506582725986  1.0000
  I   I4        1.0  0.2402507093778418  0.7597492682282889  0.7597493193887394  1.0000
  I   I5        1.0  0.24025067936319192  0.7597493072499046  0.2402507117770501  1.0000
  I   I6        1.0  0.759749337570242  0.24025065969171835  0.7597493357541155  1.0000
