data_image0
_chemical_formula_structural       In2CrI6
_chemical_formula_sum              "In2 Cr1 I6"
_cell_length_a       7.87382708710756
_cell_length_b       7.873827183702081
_cell_length_c       7.87382720320731
_cell_angle_alpha    59.999998599019165
_cell_angle_beta     59.99999995831398
_cell_angle_gamma    60.00000097766847

_space_group_name_H-M_alt    "P 1"
_space_group_IT_number       1

loop_
  _space_group_symop_operation_xyz
  'x, y, z'

loop_
  _atom_site_type_symbol
  _atom_site_label
  _atom_site_symmetry_multiplicity
  _atom_site_fract_x
  _atom_site_fract_y
  _atom_site_fract_z
  _atom_site_occupancy
  In  In1       1.0  0.2500000207604215  0.2499999850550274  0.25000000412947243  1.0000
  In  In2       1.0  0.749999994450947  0.7500000002735155  0.7500000021588417  1.0000
  Cr  Cr1       1.0  0.999999991526278  3.422019399711356e-08  0.9999998283729622  1.0000
  I   I1        1.0  0.24022838348912948  0.24022837600189847  0.7597716169922376  1.0000
  I   I2        1.0  0.7597716078133703  0.759771632658593  0.24022838450441467  1.0000
  I   I3        1.0  0.759771521451143  0.24022848549249132  0.24022845352781275  1.0000
  I   I4        1.0  0.24022841633025452  0.7597715869419915  0.7597715987237321  1.0000
  I   I5        1.0  0.24022845998343492  0.7597715193687172  0.24022847563330985  1.0000
  I   I6        1.0  0.7597716104824168  0.240228388186663  0.7597716206562305  1.0000
