data_image0
_chemical_formula_structural       In2CI6
_chemical_formula_sum              "In2 C1 I6"
_cell_length_a       7.758755761810899
_cell_length_b       7.7587558373776195
_cell_length_c       7.758755697872535
_cell_angle_alpha    60.000000632647776
_cell_angle_beta     60.00000064936396
_cell_angle_gamma    60.000001154621124

_space_group_name_H-M_alt    "P 1"
_space_group_IT_number       1

loop_
  _space_group_symop_operation_xyz
  'x, y, z'

loop_
  _atom_site_type_symbol
  _atom_site_label
  _atom_site_symmetry_multiplicity
  _atom_site_fract_x
  _atom_site_fract_y
  _atom_site_fract_z
  _atom_site_occupancy
  In  In1       1.0  0.24999998166829535  0.25000000762449515  0.250000004985218  1.0000
  In  In2       1.0  0.7500000175992365  0.7499999881457701  0.7499999934446037  1.0000
  C   C1        1.0  5.2150872703826576e-08  0.9999998926597873  3.1062073379699287e-09  1.0000
  I   I1        1.0  0.24252982094556036  0.2425299127827066  0.757470144480971  1.0000
  I   I2        1.0  0.7574701722476971  0.7574701413932625  0.2425298600047976  1.0000
  I   I3        1.0  0.7574701379501788  0.24252988952510707  0.2425298675488903  1.0000
  I   I4        1.0  0.24252983240856849  0.7574701393943412  0.7574701519603283  1.0000
  I   I5        1.0  0.24252983727279498  0.7574701635844159  0.24252988598338449  1.0000
  I   I6        1.0  0.7574701478782222  0.24252987007063023  0.75747010571777  1.0000
