data_image0
_chemical_formula_structural       In2CoCl6
_chemical_formula_sum              "In2 Co1 Cl6"
_cell_length_a       7.064968848829147
_cell_length_b       7.064969169684891
_cell_length_c       7.0649690056000365
_cell_angle_alpha    60.00000280809404
_cell_angle_beta     60.00000221205004
_cell_angle_gamma    60.00000268308056

_space_group_name_H-M_alt    "P 1"
_space_group_IT_number       1

loop_
  _space_group_symop_operation_xyz
  'x, y, z'

loop_
  _atom_site_type_symbol
  _atom_site_label
  _atom_site_symmetry_multiplicity
  _atom_site_fract_x
  _atom_site_fract_y
  _atom_site_fract_z
  _atom_site_occupancy
  In  In1       1.0  0.25000006421076204  0.24999994684825708  0.2499999412152842  1.0000
  In  In2       1.0  0.7500000109982817  0.7499998804163291  0.7500001266583104  1.0000
  Co  Co1       1.0  0.9999999843329624  0.999999993065816  0.9999999787456196  1.0000
  Cl  Cl1       1.0  0.2264692192390599  0.22646924118398365  0.7735308214078646  1.0000
  Cl  Cl2       1.0  0.7735307648851982  0.7735308201092989  0.22646924576549524  1.0000
  Cl  Cl3       1.0  0.7735307280151773  0.22646930996667525  0.22646923264696656  1.0000
  Cl  Cl4       1.0  0.226469255069533  0.7735307201227795  0.7735307232589864  1.0000
  Cl  Cl5       1.0  0.22646924563852666  0.773530699694434  0.22646927805537098  1.0000
  Cl  Cl6       1.0  0.7735307172384911  0.2264693615988467  0.7735306581981717  1.0000
