data_image0
_chemical_formula_structural       In2CaBr6
_chemical_formula_sum              "In2 Ca1 Br6"
_cell_length_a       7.62499364109692
_cell_length_b       7.624993800848829
_cell_length_c       7.624993663425012
_cell_angle_alpha    59.99999976410795
_cell_angle_beta     60.00000073832901
_cell_angle_gamma    59.999999243801824

_space_group_name_H-M_alt    "P 1"
_space_group_IT_number       1

loop_
  _space_group_symop_operation_xyz
  'x, y, z'

loop_
  _atom_site_type_symbol
  _atom_site_label
  _atom_site_symmetry_multiplicity
  _atom_site_fract_x
  _atom_site_fract_y
  _atom_site_fract_z
  _atom_site_occupancy
  In  In1       1.0  0.25000004001912995  0.24999997868829074  0.24999999436201162  1.0000
  In  In2       1.0  0.7499999778437428  0.7500000083449585  0.7499999996921428  1.0000
  Ca  Ca1       1.0  0.9999999676629766  1.606224849140639e-09  0.9999999878243926  1.0000
  Br  Br1       1.0  0.26212723442845554  0.26212720992119126  0.7378727800051161  1.0000
  Br  Br2       1.0  0.7378728176217266  0.7378728108427637  0.26212718271298385  1.0000
  Br  Br3       1.0  0.7378727581904757  0.26212717802892166  0.2621272216896751  1.0000
  Br  Br4       1.0  0.2621272169185592  0.7378728009732073  0.7378728305438709  1.0000
  Br  Br5       1.0  0.26212719121587924  0.7378728342680266  0.26212715663657277  1.0000
  Br  Br6       1.0  0.7378727943860708  0.26212717685858455  0.7378728467472679  1.0000
