data_image0
_chemical_formula_structural       In2CdCl6
_chemical_formula_sum              "In2 Cd1 Cl6"
_cell_length_a       7.227951103664812
_cell_length_b       7.227951040855254
_cell_length_c       7.227950999625326
_cell_angle_alpha    60.00000057780624
_cell_angle_beta     59.999999693328164
_cell_angle_gamma    60.00000030406705

_space_group_name_H-M_alt    "P 1"
_space_group_IT_number       1

loop_
  _space_group_symop_operation_xyz
  'x, y, z'

loop_
  _atom_site_type_symbol
  _atom_site_label
  _atom_site_symmetry_multiplicity
  _atom_site_fract_x
  _atom_site_fract_y
  _atom_site_fract_z
  _atom_site_occupancy
  In  In1       1.0  0.2500000174743054  0.2500000182090226  0.2499999731392774  1.0000
  In  In2       1.0  0.7499999856997184  0.7499998953481565  0.750000001981492  1.0000
  Cd  Cd1       1.0  1.1456938480657963e-08  1.3555652027802395e-08  0.9999999861101868  1.0000
  Cl  Cl1       1.0  0.25339122294805444  0.2533912241150917  0.7466088020531453  1.0000
  Cl  Cl2       1.0  0.7466087927626646  0.7466087860261085  0.2533911959842715  1.0000
  Cl  Cl3       1.0  0.7466088349313474  0.2533911658604547  0.2533911990936606  1.0000
  Cl  Cl4       1.0  0.2533912131346065  0.7466087951415071  0.7466088280885269  1.0000
  Cl  Cl5       1.0  0.253391174327681  0.7466088321738621  0.25339118953902123  1.0000
  Cl  Cl6       1.0  0.7466087604229822  0.2533912626901633  0.7466088287532989  1.0000
