data_image0
_chemical_formula_structural       In2CrF6
_chemical_formula_sum              "In2 Cr1 F6"
_cell_length_a       5.721159152813393
_cell_length_b       5.721159174444229
_cell_length_c       5.721159117982966
_cell_angle_alpha    59.99999966552153
_cell_angle_beta     59.999999536730996
_cell_angle_gamma    60.00000033536225

_space_group_name_H-M_alt    "P 1"
_space_group_IT_number       1

loop_
  _space_group_symop_operation_xyz
  'x, y, z'

loop_
  _atom_site_type_symbol
  _atom_site_label
  _atom_site_symmetry_multiplicity
  _atom_site_fract_x
  _atom_site_fract_y
  _atom_site_fract_z
  _atom_site_occupancy
  In  In1       1.0  0.24999996802142785  0.24999997429135848  0.2500000544816995  1.0000
  In  In2       1.0  0.7500000119505162  0.7499999806737472  0.7499999530056242  1.0000
  Cr  Cr1       1.0  0.9999999910908005  8.562913966264821e-09  2.813950355962889e-08  1.0000
  F   F1        1.0  0.23685522070524465  0.23685521988060967  0.7631447986615404  1.0000
  F   F2        1.0  0.763144778347809  0.7631447928841661  0.2368552472928851  1.0000
  F   F3        1.0  0.7631447896829002  0.2368552328403986  0.23685520887180164  1.0000
  F   F4        1.0  0.236855229206851  0.7631447627985495  0.7631447500802091  1.0000
  F   F5        1.0  0.2368552122660484  0.7631447697014399  0.2368552291645075  1.0000
  F   F6        1.0  0.7631447758595082  0.23685525162625054  0.7631447498042049  1.0000
