data_image0
_chemical_formula_structural       In2CaI6
_chemical_formula_sum              "In2 Ca1 I6"
_cell_length_a       8.139912493896254
_cell_length_b       8.139912407522841
_cell_length_c       8.139912435350503
_cell_angle_alpha    60.00000061684131
_cell_angle_beta     59.99999967315471
_cell_angle_gamma    59.99999956964732

_space_group_name_H-M_alt    "P 1"
_space_group_IT_number       1

loop_
  _space_group_symop_operation_xyz
  'x, y, z'

loop_
  _atom_site_type_symbol
  _atom_site_label
  _atom_site_symmetry_multiplicity
  _atom_site_fract_x
  _atom_site_fract_y
  _atom_site_fract_z
  _atom_site_occupancy
  In  In1       1.0  0.2500000142803209  0.2500000098782957  0.2499999909753699  1.0000
  In  In2       1.0  0.7499999892944103  0.7499999860010009  0.7500000030886123  1.0000
  Ca  Ca1       1.0  0.9999999662838469  7.523084115030098e-09  2.2924650208342745e-08  1.0000
  I   I1        1.0  0.2661043212408408  0.2661042532083969  0.7338957198213025  1.0000
  I   I2        1.0  0.7338956723178757  0.7338957471847503  0.2661042954214787  1.0000
  I   I3        1.0  0.7338957398066861  0.2661042992326699  0.2661042532202826  1.0000
  I   I4        1.0  0.2661042945610151  0.7338956936373928  0.733895719580745  1.0000
  I   I5        1.0  0.2661043156256634  0.7338956767313188  0.26610430202340674  1.0000
  I   I6        1.0  0.7338956872754278  0.2661043296802953  0.7338956981678669  1.0000
