data_image0
_chemical_formula_structural       In2CCl6
_chemical_formula_sum              "In2 C1 Cl6"
_cell_length_a       7.3935980558704895
_cell_length_b       7.393597422961742
_cell_length_c       7.393598605668743
_cell_angle_alpha    59.99999893723251
_cell_angle_beta     60.00000365597578
_cell_angle_gamma    59.999995045096334

_space_group_name_H-M_alt    "P 1"
_space_group_IT_number       1

loop_
  _space_group_symop_operation_xyz
  'x, y, z'

loop_
  _atom_site_type_symbol
  _atom_site_label
  _atom_site_symmetry_multiplicity
  _atom_site_fract_x
  _atom_site_fract_y
  _atom_site_fract_z
  _atom_site_occupancy
  In  In1       1.0  0.25000018122107825  0.24999996534914815  0.2500000324377638  1.0000
  In  In2       1.0  0.750000029211641  0.7500000385059334  0.7499998897261106  1.0000
  C   C1        1.0  0.9999999095616113  0.9999999105493423  5.146362214229171e-07  1.0000
  Cl  Cl1       1.0  0.20777213589963509  0.2077724176971041  0.7922278482326681  1.0000
  Cl  Cl2       1.0  0.7922279085591132  0.792227690517107  0.2077723251996034  1.0000
  Cl  Cl3       1.0  0.792227757425823  0.20777211646849633  0.20777209923217524  1.0000
  Cl  Cl4       1.0  0.20777240634924046  0.7922275494618168  0.792227629754312  1.0000
  Cl  Cl5       1.0  0.20777218267098316  0.7922279109748526  0.2077719837263572  1.0000
  Cl  Cl6       1.0  0.7922274660756747  0.20777241920954548  0.792227663884681  1.0000
