data_image0
_chemical_formula_structural       In2CaF6
_chemical_formula_sum              "In2 Ca1 F6"
_cell_length_a       5.555405416595056
_cell_length_b       5.555405153292944
_cell_length_c       5.555405364349731
_cell_angle_alpha    59.99999755495267
_cell_angle_beta     59.99999836457752
_cell_angle_gamma    59.99999739758868

_space_group_name_H-M_alt    "P 1"
_space_group_IT_number       1

loop_
  _space_group_symop_operation_xyz
  'x, y, z'

loop_
  _atom_site_type_symbol
  _atom_site_label
  _atom_site_symmetry_multiplicity
  _atom_site_fract_x
  _atom_site_fract_y
  _atom_site_fract_z
  _atom_site_occupancy
  In  In1       1.0  0.24999992718684572  0.2499998436584236  0.25000012086336365  1.0000
  In  In2       1.0  0.7499999229318196  0.7500001107852077  0.7500001046022476  1.0000
  Ca  Ca1       1.0  1.7615170223498256e-08  0.999999984567796  4.390973335559043e-08  1.0000
  F   F1        1.0  0.2670962855794588  0.2670961758936856  0.7329037549523675  1.0000
  F   F2        1.0  0.732903740708837  0.7329038050051527  0.26709613339444727  1.0000
  F   F3        1.0  0.7329038692719733  0.26709621529311217  0.26709620133728174  1.0000
  F   F4        1.0  0.2670961585688714  0.7329038295391407  0.7329037532692273  1.0000
  F   F5        1.0  0.2670962462222077  0.7329038434108047  0.26709615647126184  1.0000
  F   F6        1.0  0.7329038236716813  0.2670962124444509  0.7329037247959577  1.0000
