data_image0
_chemical_formula_structural       In2CBr6
_chemical_formula_sum              "In2 C1 Br6"
_cell_length_a       7.563788461793026
_cell_length_b       7.563788546008441
_cell_length_c       7.5637884698897215
_cell_angle_alpha    60.00000408381428
_cell_angle_beta     60.000000700866465
_cell_angle_gamma    59.99999807205665

_space_group_name_H-M_alt    "P 1"
_space_group_IT_number       1

loop_
  _space_group_symop_operation_xyz
  'x, y, z'

loop_
  _atom_site_type_symbol
  _atom_site_label
  _atom_site_symmetry_multiplicity
  _atom_site_fract_x
  _atom_site_fract_y
  _atom_site_fract_z
  _atom_site_occupancy
  In  In1       1.0  0.24999995063318056  0.24999997230233065  0.2500000675098957  1.0000
  In  In2       1.0  0.7500000189621515  0.7500000156794865  0.7499999902868106  1.0000
  C   C1        1.0  2.5838725686449297e-07  0.9999997927396421  0.9999998448718439  1.0000
  Br  Br1       1.0  0.22139657014217307  0.22139664331236925  0.7786033637768128  1.0000
  Br  Br2       1.0  0.7786033316814589  0.7786032960928103  0.22139678656836942  1.0000
  Br  Br3       1.0  0.7786033529992324  0.2213966554596264  0.22139687274063088  1.0000
  Br  Br4       1.0  0.22139651341577982  0.778603486348237  0.778603343503559  1.0000
  Br  Br5       1.0  0.22139659166802217  0.7786034269632672  0.22139668468018106  1.0000
  Br  Br6       1.0  0.7786033969848197  0.2213966824601455  0.778603068857259  1.0000
