data_image0
_chemical_formula_structural       In2CdF6
_chemical_formula_sum              "In2 Cd1 F6"
_cell_length_a       5.672212931844137
_cell_length_b       5.672213076978244
_cell_length_c       5.672213271531084
_cell_angle_alpha    60.00000044771117
_cell_angle_beta     59.99999881738505
_cell_angle_gamma    59.99999985826368

_space_group_name_H-M_alt    "P 1"
_space_group_IT_number       1

loop_
  _space_group_symop_operation_xyz
  'x, y, z'

loop_
  _atom_site_type_symbol
  _atom_site_label
  _atom_site_symmetry_multiplicity
  _atom_site_fract_x
  _atom_site_fract_y
  _atom_site_fract_z
  _atom_site_occupancy
  In  In1       1.0  0.2499999706641084  0.25000007603796554  0.24999992547820313  1.0000
  In  In2       1.0  0.7500000299862805  0.7499999474177567  0.7499999635645146  1.0000
  Cd  Cd1       1.0  1.342796705544171e-08  0.999999971930386  1.966168499860713e-08  1.0000
  F   F1        1.0  0.26554652168069454  0.2655465363193937  0.7344535072414727  1.0000
  F   F2        1.0  0.7344534654606143  0.7344534482707108  0.2655465261082703  1.0000
  F   F3        1.0  0.7344534682098488  0.2655465491087808  0.2655464888505113  1.0000
  F   F4        1.0  0.2655465194254069  0.7344534095709105  0.7344535483925633  1.0000
  F   F5        1.0  0.26554650957405207  0.7344534522361479  0.265546574035139  1.0000
  F   F6        1.0  0.7344534763323894  0.2655465971299893  0.7344534363589231  1.0000
