data_image0
_chemical_formula_structural       In2CF6
_chemical_formula_sum              "In2 C1 F6"
_cell_length_a       5.6834563143266035
_cell_length_b       5.683456297016641
_cell_length_c       5.683456101409591
_cell_angle_alpha    60.00000089679474
_cell_angle_beta     60.0000000573565
_cell_angle_gamma    60.000000741941584

_space_group_name_H-M_alt    "P 1"
_space_group_IT_number       1

loop_
  _space_group_symop_operation_xyz
  'x, y, z'

loop_
  _atom_site_type_symbol
  _atom_site_label
  _atom_site_symmetry_multiplicity
  _atom_site_fract_x
  _atom_site_fract_y
  _atom_site_fract_z
  _atom_site_occupancy
  In  In1       1.0  0.24999999606626508  0.2500000467783727  0.24999991066272081  1.0000
  In  In2       1.0  0.7499999331390448  0.7500000799970874  0.7499998864591565  1.0000
  C   C1        1.0  0.9999999884508644  0.9999997177042133  0.9999998583656452  1.0000
  F   F1        1.0  0.20493477278279418  0.20493463045143515  0.7950652712971024  1.0000
  F   F2        1.0  0.7950648114054205  0.7950654769296567  0.20493478016971406  1.0000
  F   F3        1.0  0.7950647689202788  0.20493525710856858  0.2049350064566938  1.0000
  F   F4        1.0  0.20493503790471992  0.7950652855683167  0.7950647846640497  1.0000
  F   F5        1.0  0.20493573907458554  0.7950645928173177  0.2049353503762899  1.0000
  F   F6        1.0  0.7950650165664549  0.2049348831693876  0.7950650873521061  1.0000
