data_image0
_chemical_formula_structural       In2CrCl6
_chemical_formula_sum              "In2 Cr1 Cl6"
_cell_length_a       7.06832414938096
_cell_length_b       7.068324019203604
_cell_length_c       7.06832414791492
_cell_angle_alpha    59.99999947121128
_cell_angle_beta     59.99999827266488
_cell_angle_gamma    59.99999927952917

_space_group_name_H-M_alt    "P 1"
_space_group_IT_number       1

loop_
  _space_group_symop_operation_xyz
  'x, y, z'

loop_
  _atom_site_type_symbol
  _atom_site_label
  _atom_site_symmetry_multiplicity
  _atom_site_fract_x
  _atom_site_fract_y
  _atom_site_fract_z
  _atom_site_occupancy
  In  In1       1.0  0.25000005597500047  0.24999998838961626  0.25000001231886704  1.0000
  In  In2       1.0  0.7500000698082826  0.7499999703670179  0.7500000480468147  1.0000
  Cr  Cr1       1.0  0.9999999861382172  4.158535507579251e-08  0.9999998616391134  1.0000
  Cl  Cl1       1.0  0.2336146025813286  0.23361467216338783  0.7663852920821442  1.0000
  Cl  Cl2       1.0  0.7663854224946558  0.7663852848605214  0.23361459880059943  1.0000
  Cl  Cl3       1.0  0.7663852921139259  0.23361469354491718  0.23361474263102308  1.0000
  Cl  Cl4       1.0  0.23361445251885396  0.7663854921984509  0.7663853410555731  1.0000
  Cl  Cl5       1.0  0.2336146795753282  0.766385275137813  0.2336147667974871  1.0000
  Cl  Cl6       1.0  0.7663854697243172  0.23361456406092254  0.7663853246118122  1.0000
