data_image0
_chemical_formula_structural       In2CaCl6
_chemical_formula_sum              "In2 Ca1 Cl6"
_cell_length_a       7.302592631891868
_cell_length_b       7.30259260560091
_cell_length_c       7.302592642887858
_cell_angle_alpha    60.00000049505215
_cell_angle_beta     59.9999986246022
_cell_angle_gamma    59.99999906580702

_space_group_name_H-M_alt    "P 1"
_space_group_IT_number       1

loop_
  _space_group_symop_operation_xyz
  'x, y, z'

loop_
  _atom_site_type_symbol
  _atom_site_label
  _atom_site_symmetry_multiplicity
  _atom_site_fract_x
  _atom_site_fract_y
  _atom_site_fract_z
  _atom_site_occupancy
  In  In1       1.0  0.24999998551845648  0.2499999636800809  0.24999998150225788  1.0000
  In  In2       1.0  0.749999959906817  0.7500000470139907  0.7500000086287271  1.0000
  Ca  Ca1       1.0  6.201833349635892e-08  3.6897015655512476e-08  3.270492522335979e-08  1.0000
  Cl  Cl1       1.0  0.2567111581885892  0.25671102039643434  0.7432889939297586  1.0000
  Cl  Cl2       1.0  0.7432889139289401  0.7432888141982475  0.25671121124814855  1.0000
  Cl  Cl3       1.0  0.7432889021995798  0.2567111298207754  0.25671105980354003  1.0000
  Cl  Cl4       1.0  0.256711057536135  0.7432889043532143  0.7432888580265753  1.0000
  Cl  Cl5       1.0  0.256711116571941  0.7432889032849627  0.2567110403363973  1.0000
  Cl  Cl6       1.0  0.7432888372691092  0.25671119126596054  0.7432888187569205  1.0000
