data_image0
_chemical_formula_structural       In2CrBr6
_chemical_formula_sum              "In2 Cr1 Br6"
_cell_length_a       7.380597415896999
_cell_length_b       7.380597315542248
_cell_length_c       7.380597314401816
_cell_angle_alpha    60.00000201334055
_cell_angle_beta     60.00000032432869
_cell_angle_gamma    59.99999881222466

_space_group_name_H-M_alt    "P 1"
_space_group_IT_number       1

loop_
  _space_group_symop_operation_xyz
  'x, y, z'

loop_
  _atom_site_type_symbol
  _atom_site_label
  _atom_site_symmetry_multiplicity
  _atom_site_fract_x
  _atom_site_fract_y
  _atom_site_fract_z
  _atom_site_occupancy
  In  In1       1.0  0.24999999640649387  0.25000000788168364  0.25000000449256743  1.0000
  In  In2       1.0  0.7500000142678971  0.7499999954350527  0.7499999757662803  1.0000
  Cr  Cr1       1.0  2.1242886924401866e-07  0.9999997992111982  1.093467935117413e-07  1.0000
  Br  Br1       1.0  0.23652456507510228  0.2365246055714598  0.7634753862739029  1.0000
  Br  Br2       1.0  0.7634753966575832  0.7634753662164575  0.2365246166064561  1.0000
  Br  Br3       1.0  0.7634754594668481  0.2365245276161174  0.23652458019822264  1.0000
  Br  Br4       1.0  0.23652445581859244  0.7634755553523789  0.7634755203862443  1.0000
  Br  Br5       1.0  0.23652450102246741  0.763475501610641  0.236524486097503  1.0000
  Br  Br6       1.0  0.7634753937968982  0.2365246427560774  0.7634753189754021  1.0000
