data_image0
_chemical_formula_structural       In2CoBr6
_chemical_formula_sum              "In2 Co1 Br6"
_cell_length_a       7.351404834429728
_cell_length_b       7.3514049953541525
_cell_length_c       7.3514050959115504
_cell_angle_alpha    59.99999953373082
_cell_angle_beta     59.99999903129659
_cell_angle_gamma    60.00000050684867

_space_group_name_H-M_alt    "P 1"
_space_group_IT_number       1

loop_
  _space_group_symop_operation_xyz
  'x, y, z'

loop_
  _atom_site_type_symbol
  _atom_site_label
  _atom_site_symmetry_multiplicity
  _atom_site_fract_x
  _atom_site_fract_y
  _atom_site_fract_z
  _atom_site_occupancy
  In  In1       1.0  0.2499999784402004  0.24999998739743917  0.25000001228489377  1.0000
  In  In2       1.0  0.7500000281346555  0.7500000371623669  0.7499999815285973  1.0000
  Co  Co1       1.0  0.9999999608599508  0.9999999383579596  4.358962387963635e-08  1.0000
  Br  Br1       1.0  0.23880000763086606  0.23879999967578563  0.7611999945325972  1.0000
  Br  Br2       1.0  0.7612000114607161  0.7612001098500759  0.2387999314955246  1.0000
  Br  Br3       1.0  0.7612000350530275  0.2387999664639655  0.23880001607506654  1.0000
  Br  Br4       1.0  0.23879999835205848  0.7611999964538004  0.7611999951443297  1.0000
  Br  Br5       1.0  0.23879995790451738  0.7612000202698541  0.2388000064668717  1.0000
  Br  Br6       1.0  0.7612000123858909  0.23879995764192116  0.7612000315334269  1.0000
