data_image0
_chemical_formula_structural       In2CuCl6
_chemical_formula_sum              "In2 Cu1 Cl6"
_cell_length_a       7.125888116691431
_cell_length_b       7.125889042309536
_cell_length_c       7.125889314061863
_cell_angle_alpha    60.00000178449368
_cell_angle_beta     59.999999938376924
_cell_angle_gamma    59.999996009331355

_space_group_name_H-M_alt    "P 1"
_space_group_IT_number       1

loop_
  _space_group_symop_operation_xyz
  'x, y, z'

loop_
  _atom_site_type_symbol
  _atom_site_label
  _atom_site_symmetry_multiplicity
  _atom_site_fract_x
  _atom_site_fract_y
  _atom_site_fract_z
  _atom_site_occupancy
  In  In1       1.0  0.25000033877685757  0.2500000102970787  0.24999988552362964  1.0000
  In  In2       1.0  0.7499998040968529  0.7500002938563652  0.7500002420684954  1.0000
  Cu  Cu1       1.0  7.459039013985164e-08  0.9999999123449824  0.9999999139122964  1.0000
  Cl  Cl1       1.0  0.23316567766982665  0.2331657001769374  0.7668342329403048  1.0000
  Cl  Cl2       1.0  0.7668344187423781  0.766834179451256  0.23316555618173876  1.0000
  Cl  Cl3       1.0  0.7668342484292496  0.23316565918544122  0.23316561963766372  1.0000
  Cl  Cl4       1.0  0.23316556659808896  0.7668343888778957  0.7668344504926117  1.0000
  Cl  Cl5       1.0  0.23316557392233758  0.7668345018457283  0.23316557479317665  1.0000
  Cl  Cl6       1.0  0.766834272174095  0.23316538981356721  0.7668345074845598  1.0000
