data_image0
_chemical_formula_structural       In2FeF6
_chemical_formula_sum              "In2 Fe1 F6"
_cell_length_a       5.7419622241831725
_cell_length_b       5.74196216377669
_cell_length_c       5.74196201057913
_cell_angle_alpha    59.9999993861693
_cell_angle_beta     59.99999928288981
_cell_angle_gamma    59.99999762357531

_space_group_name_H-M_alt    "P 1"
_space_group_IT_number       1

loop_
  _space_group_symop_operation_xyz
  'x, y, z'

loop_
  _atom_site_type_symbol
  _atom_site_label
  _atom_site_symmetry_multiplicity
  _atom_site_fract_x
  _atom_site_fract_y
  _atom_site_fract_z
  _atom_site_occupancy
  In  In1       1.0  0.25000004675742227  0.24999996411469153  0.25000000106804876  1.0000
  In  In2       1.0  0.7499999462799828  0.7500000821786543  0.7499999704516993  1.0000
  Fe  Fe1       1.0  1.3591921534581578e-09  1.0451566620055714e-07  0.9999998460518004  1.0000
  F   F1        1.0  0.23775251793104937  0.2377525024904284  0.7622475113650274  1.0000
  F   F2        1.0  0.7622474411043721  0.7622474286223889  0.23775254693693354  1.0000
  F   F3        1.0  0.7622475363533137  0.23775249231635381  0.2377524685849959  1.0000
  F   F4        1.0  0.23775242903916557  0.7622474921207826  0.762247549426886  1.0000
  F   F5        1.0  0.23775247098684008  0.762247541950362  0.2377525200376181  1.0000
  F   F6        1.0  0.7622476232725881  0.23775236356677865  0.7622475774946853  1.0000
