data_image0
_chemical_formula_structural       In2FeCl6
_chemical_formula_sum              "In2 Fe1 Cl6"
_cell_length_a       7.108940761723812
_cell_length_b       7.108940907577413
_cell_length_c       7.10894047100617
_cell_angle_alpha    60.000001487024484
_cell_angle_beta     60.000002069397965
_cell_angle_gamma    60.0000000188714

_space_group_name_H-M_alt    "P 1"
_space_group_IT_number       1

loop_
  _space_group_symop_operation_xyz
  'x, y, z'

loop_
  _atom_site_type_symbol
  _atom_site_label
  _atom_site_symmetry_multiplicity
  _atom_site_fract_x
  _atom_site_fract_y
  _atom_site_fract_z
  _atom_site_occupancy
  In  In1       1.0  0.2500000059816303  0.25000005825091876  0.24999997587497047  1.0000
  In  In2       1.0  0.7499999900730269  0.7499999611226756  0.750000049782564  1.0000
  Fe  Fe1       1.0  4.10492673421472e-08  6.202163593617293e-08  0.9999999343977545  1.0000
  Cl  Cl1       1.0  0.2268010494563056  0.22680109191932743  0.7731989111789077  1.0000
  Cl  Cl2       1.0  0.7731988571158726  0.7731988499272237  0.22680111076926582  1.0000
  Cl  Cl3       1.0  0.7731989374733595  0.22680113213476566  0.22680105520466767  1.0000
  Cl  Cl4       1.0  0.2268010687211774  0.77319886656495  0.7731989532129963  1.0000
  Cl  Cl5       1.0  0.22680107470846939  0.7731988903680088  0.22680109663632592  1.0000
  Cl  Cl6       1.0  0.7731989455473388  0.2268010807665346  0.7731989396334793  1.0000
