data_image0
_chemical_formula_structural       In2FeI6
_chemical_formula_sum              "In2 Fe1 I6"
_cell_length_a       7.81623444256571
_cell_length_b       7.81623497652383
_cell_length_c       7.8162339635468365
_cell_angle_alpha    60.00000056612879
_cell_angle_beta     60.000000955354665
_cell_angle_gamma    60.00000076496991

_space_group_name_H-M_alt    "P 1"
_space_group_IT_number       1

loop_
  _space_group_symop_operation_xyz
  'x, y, z'

loop_
  _atom_site_type_symbol
  _atom_site_label
  _atom_site_symmetry_multiplicity
  _atom_site_fract_x
  _atom_site_fract_y
  _atom_site_fract_z
  _atom_site_occupancy
  In  In1       1.0  0.24999996992266013  0.25000003182932107  0.25000001159110974  1.0000
  In  In2       1.0  0.7499999307652938  0.7500000014725086  0.7499999676519326  1.0000
  Fe  Fe1       1.0  0.9999999815553633  3.760618112484042e-08  5.438865288083195e-08  1.0000
  I   I1        1.0  0.2223574620524771  0.22235738107792202  0.7776425712060794  1.0000
  I   I2        1.0  0.7776427334549078  0.7776427117670254  0.22235731017777252  1.0000
  I   I3        1.0  0.7776426580881197  0.22235726749718962  0.22235732566833474  1.0000
  I   I4        1.0  0.22235736344234086  0.7776426780568737  0.7776427368196432  1.0000
  I   I5        1.0  0.22235743287597562  0.7776426694590548  0.22235717628046212  1.0000
  I   I6        1.0  0.7776424823777415  0.22235727139424166  0.7776428099192545  1.0000
