data_image0
_chemical_formula_structural       In2FeCl6
_chemical_formula_sum              "In2 Fe1 Cl6"
_cell_length_a       7.10733066520539
_cell_length_b       7.107330579123311
_cell_length_c       7.107331592934276
_cell_angle_alpha    59.999995837412314
_cell_angle_beta     59.9999974865274
_cell_angle_gamma    59.99999975281567

_space_group_name_H-M_alt    "P 1"
_space_group_IT_number       1

loop_
  _space_group_symop_operation_xyz
  'x, y, z'

loop_
  _atom_site_type_symbol
  _atom_site_label
  _atom_site_symmetry_multiplicity
  _atom_site_fract_x
  _atom_site_fract_y
  _atom_site_fract_z
  _atom_site_occupancy
  In  In1       1.0  0.2499999639542998  0.24999986423170825  0.25000010634085856  1.0000
  In  In2       1.0  0.7499999493424885  0.7500000148824735  0.7500004042056039  1.0000
  Fe  Fe1       1.0  0.9999999794228915  0.9999998862678976  2.542853136477884e-07  1.0000
  Cl  Cl1       1.0  0.22697126524182817  0.22697122884006785  0.7730287580021971  1.0000
  Cl  Cl2       1.0  0.7730288064466332  0.7730289208186635  0.22697104984791677  1.0000
  Cl  Cl3       1.0  0.773028938774074  0.2269711080337901  0.22697106471027825  1.0000
  Cl  Cl4       1.0  0.22697121676053514  0.7730288193303813  0.7730287166881906  1.0000
  Cl  Cl5       1.0  0.22697111984224055  0.7730288609690642  0.22697102783446713  1.0000
  Cl  Cl6       1.0  0.7730287156959141  0.22697129041287442  0.7730286904005148  1.0000
