data_image0
_chemical_formula_structural       In2FeBr6
_chemical_formula_sum              "In2 Fe1 Br6"
_cell_length_a       7.540756104821916
_cell_length_b       7.5407559823101735
_cell_length_c       7.540756308139072
_cell_angle_alpha    60.00000020140715
_cell_angle_beta     60.000000607993734
_cell_angle_gamma    59.99999868367467

_space_group_name_H-M_alt    "P 1"
_space_group_IT_number       1

loop_
  _space_group_symop_operation_xyz
  'x, y, z'

loop_
  _atom_site_type_symbol
  _atom_site_label
  _atom_site_symmetry_multiplicity
  _atom_site_fract_x
  _atom_site_fract_y
  _atom_site_fract_z
  _atom_site_occupancy
  In  In1       1.0  0.24999999778523246  0.2500000075401167  0.24999996823333162  1.0000
  In  In2       1.0  0.7499999985068637  0.7499999933853415  0.7500000374194661  1.0000
  Fe  Fe1       1.0  0.9999999791672273  0.9999998879324624  1.6060516542154566e-07  1.0000
  Br  Br1       1.0  0.2126459039236924  0.2126458361409133  0.7873541047447434  1.0000
  Br  Br2       1.0  0.78735402432869  0.7873540657103438  0.2126459128541558  1.0000
  Br  Br3       1.0  0.7873541634049782  0.21264590714842024  0.21264590068383446  1.0000
  Br  Br4       1.0  0.2126459148781844  0.7873542107170772  0.7873539803070015  1.0000
  Br  Br5       1.0  0.2126458495461646  0.7873542244641621  0.21264586637051172  1.0000
  Br  Br6       1.0  0.7873541634493051  0.21264586416632567  0.787354030054628  1.0000
