data_image0
_chemical_formula_structural       In2FeI6
_chemical_formula_sum              "In2 Fe1 I6"
_cell_length_a       7.816913920585795
_cell_length_b       7.8169143727602775
_cell_length_c       7.816914039158154
_cell_angle_alpha    60.00000305145138
_cell_angle_beta     60.000002943978
_cell_angle_gamma    60.00000324284692

_space_group_name_H-M_alt    "P 1"
_space_group_IT_number       1

loop_
  _space_group_symop_operation_xyz
  'x, y, z'

loop_
  _atom_site_type_symbol
  _atom_site_label
  _atom_site_symmetry_multiplicity
  _atom_site_fract_x
  _atom_site_fract_y
  _atom_site_fract_z
  _atom_site_occupancy
  In  In1       1.0  0.24999991177858538  0.2499999930297226  0.25000001887971923  1.0000
  In  In2       1.0  0.750000060136603  0.749999988489898  0.7500000417723658  1.0000
  Fe  Fe1       1.0  5.297123109493333e-08  0.999999907559504  6.834716679176749e-08  1.0000
  I   I1        1.0  0.2222449011902625  0.22224490899629873  0.7777550587813347  1.0000
  I   I2        1.0  0.7777549784535321  0.7777550568554403  0.22224492023700088  1.0000
  I   I3        1.0  0.777754967373776  0.22224513789935763  0.22224480275884387  1.0000
  I   I4        1.0  0.22224507772451538  0.7777551115410237  0.777754956855039  1.0000
  I   I5        1.0  0.2222450682433149  0.7777549580365618  0.2222449549252728  1.0000
  I   I6        1.0  0.777754974338542  0.22224498431335743  0.7777551232395374  1.0000
