data_image0
_chemical_formula_structural       In2GeCl6
_chemical_formula_sum              "In2 Ge1 Cl6"
_cell_length_a       7.210069315037025
_cell_length_b       7.210068989352878
_cell_length_c       7.210069189990058
_cell_angle_alpha    60.000001487695464
_cell_angle_beta     59.999999907737475
_cell_angle_gamma    59.99999872563882

_space_group_name_H-M_alt    "P 1"
_space_group_IT_number       1

loop_
  _space_group_symop_operation_xyz
  'x, y, z'

loop_
  _atom_site_type_symbol
  _atom_site_label
  _atom_site_symmetry_multiplicity
  _atom_site_fract_x
  _atom_site_fract_y
  _atom_site_fract_z
  _atom_site_occupancy
  In  In1       1.0  0.2500000720027263  0.25000004885370253  0.24999987282328265  1.0000
  In  In2       1.0  0.7499999667720146  0.7500000871080503  0.7499999239919263  1.0000
  Ge  Ge1       1.0  2.4719369898018444e-08  0.9999999354509582  4.904076872367079e-08  1.0000
  Cl  Cl1       1.0  0.22605356258843412  0.22605357716224952  0.7739464788718043  1.0000
  Cl  Cl2       1.0  0.773946410671506  0.7739464670719234  0.2260535782549445  1.0000
  Cl  Cl3       1.0  0.773946537532761  0.22605341001411486  0.22605357351367003  1.0000
  Cl  Cl4       1.0  0.22605350457834864  0.7739464949300177  0.7739464938674248  1.0000
  Cl  Cl5       1.0  0.22605354935578748  0.7739464004553426  0.22605357817611135  1.0000
  Cl  Cl6       1.0  0.7739463883323259  0.22605357753112632  0.7739464202914116  1.0000
