data_image0
_chemical_formula_structural       In2GeBr6
_chemical_formula_sum              "In2 Ge1 Br6"
_cell_length_a       7.488671922598305
_cell_length_b       7.488671589233355
_cell_length_c       7.488671868735624
_cell_angle_alpha    60.00000073590114
_cell_angle_beta     60.000002550845345
_cell_angle_gamma    59.99999917814284

_space_group_name_H-M_alt    "P 1"
_space_group_IT_number       1

loop_
  _space_group_symop_operation_xyz
  'x, y, z'

loop_
  _atom_site_type_symbol
  _atom_site_label
  _atom_site_symmetry_multiplicity
  _atom_site_fract_x
  _atom_site_fract_y
  _atom_site_fract_z
  _atom_site_occupancy
  In  In1       1.0  0.2499998987012047  0.2499999386723895  0.2500000941644136  1.0000
  In  In2       1.0  0.7500000423188506  0.7499999615734145  0.750000140764829  1.0000
  Ge  Ge1       1.0  0.9999999919001652  4.742843879566414e-08  0.9999998574834738  1.0000
  Br  Br1       1.0  0.23546762609453484  0.2354676948522749  0.7645322992454473  1.0000
  Br  Br2       1.0  0.7645323762872429  0.7645324376293368  0.2354675431805851  1.0000
  Br  Br3       1.0  0.7645324113785542  0.23546761075379688  0.2354675702191466  1.0000
  Br  Br4       1.0  0.23546755831276203  0.7645324301418619  0.764532393100503  1.0000
  Br  Br5       1.0  0.23546761907662084  0.7645323542578142  0.23546764799852915  1.0000
  Br  Br6       1.0  0.7645324884878819  0.2354675181851084  0.7645324547984702  1.0000
