data_image0
_chemical_formula_structural       In2GeI6
_chemical_formula_sum              "In2 Ge1 I6"
_cell_length_a       7.9362901120998615
_cell_length_b       7.93629004572326
_cell_length_c       7.936290186122511
_cell_angle_alpha    59.99999978809875
_cell_angle_beta     59.99999957098359
_cell_angle_gamma    60.000000488997834

_space_group_name_H-M_alt    "P 1"
_space_group_IT_number       1

loop_
  _space_group_symop_operation_xyz
  'x, y, z'

loop_
  _atom_site_type_symbol
  _atom_site_label
  _atom_site_symmetry_multiplicity
  _atom_site_fract_x
  _atom_site_fract_y
  _atom_site_fract_z
  _atom_site_occupancy
  In  In1       1.0  0.25000001404883415  0.2499999811500188  0.25000000501259995  1.0000
  In  In2       1.0  0.7499999994078947  0.7499999974627877  0.7499999842000467  1.0000
  Ge  Ge1       1.0  6.437658194920862e-09  0.9999999675923611  1.6765093989895213e-08  1.0000
  I   I1        1.0  0.2582629931191075  0.25826299015425425  0.7417370206856819  1.0000
  I   I2        1.0  0.7417370387074433  0.7417370424712844  0.25826295375627567  1.0000
  I   I3        1.0  0.7417369846974168  0.2582629965184938  0.25826298734432707  1.0000
  I   I4        1.0  0.2582630061556911  0.7417369975265217  0.741737025614579  1.0000
  I   I5        1.0  0.25826297085916605  0.7417370091494018  0.2582630010925236  1.0000
  I   I6        1.0  0.7417369869408079  0.25826301421681064  0.7417370049121088  1.0000
