data_image0
_chemical_formula_structural       In2GeBr6
_chemical_formula_sum              "In2 Ge1 Br6"
_cell_length_a       7.491559230903102
_cell_length_b       7.49155944290659
_cell_length_c       7.491559117470563
_cell_angle_alpha    59.99999960321851
_cell_angle_beta     60.0000010459454
_cell_angle_gamma    60.00000075666075

_space_group_name_H-M_alt    "P 1"
_space_group_IT_number       1

loop_
  _space_group_symop_operation_xyz
  'x, y, z'

loop_
  _atom_site_type_symbol
  _atom_site_label
  _atom_site_symmetry_multiplicity
  _atom_site_fract_x
  _atom_site_fract_y
  _atom_site_fract_z
  _atom_site_occupancy
  In  In1       1.0  0.24999998147291377  0.25000000972421926  0.250000015483765  1.0000
  In  In2       1.0  0.7500000137948742  0.750000001380497  0.7500000109761175  1.0000
  Ge  Ge1       1.0  1.89314308924603e-08  3.106182544142992e-08  6.043285150795729e-08  1.0000
  Br  Br1       1.0  0.23533384964003923  0.2353338556669718  0.7646661280392649  1.0000
  Br  Br2       1.0  0.7646660857801199  0.76466616851641  0.23533386440716672  1.0000
  Br  Br3       1.0  0.7646661662519663  0.23533382435422323  0.235333840122184  1.0000
  Br  Br4       1.0  0.23533391148665914  0.7646660919301809  0.76466609106493  1.0000
  Br  Br5       1.0  0.2353338666209052  0.7646661530692701  0.2353338534391729  1.0000
  Br  Br6       1.0  0.7646661164871529  0.23533387601861094  0.7646661100413887  1.0000
