data_image0
_chemical_formula_structural       In2GeCl6
_chemical_formula_sum              "In2 Ge1 Cl6"
_cell_length_a       7.213062066816957
_cell_length_b       7.213062631367796
_cell_length_c       7.213062068461492
_cell_angle_alpha    59.99999960688139
_cell_angle_beta     59.99999826893387
_cell_angle_gamma    59.999997308813576

_space_group_name_H-M_alt    "P 1"
_space_group_IT_number       1

loop_
  _space_group_symop_operation_xyz
  'x, y, z'

loop_
  _atom_site_type_symbol
  _atom_site_label
  _atom_site_symmetry_multiplicity
  _atom_site_fract_x
  _atom_site_fract_y
  _atom_site_fract_z
  _atom_site_occupancy
  In  In1       1.0  0.2500002242913651  0.24999992456652584  0.2499999979039449  1.0000
  In  In2       1.0  0.7499999402466286  0.7500001081965545  0.7500000652306952  1.0000
  Ge  Ge1       1.0  0.9999998284180927  1.5281591822041938e-08  1.2528686759624343e-07  1.0000
  Cl  Cl1       1.0  0.22601970785506567  0.22601982596498102  0.7739802557783265  1.0000
  Cl  Cl2       1.0  0.7739803435888069  0.7739802051001535  0.22601972195585104  1.0000
  Cl  Cl3       1.0  0.773980352727143  0.2260196554624168  0.2260196891958834  1.0000
  Cl  Cl4       1.0  0.22601970965085408  0.7739801939216389  0.7739802630018743  1.0000
  Cl  Cl5       1.0  0.226019636238926  0.7739803514590557  0.2260196928740965  1.0000
  Cl  Cl6       1.0  0.773980254132552  0.226019759409929  0.7739801688341182  1.0000
