data_image0
_chemical_formula_structural       In2GeI6
_chemical_formula_sum              "In2 Ge1 I6"
_cell_length_a       7.939007538885943
_cell_length_b       7.939007559529148
_cell_length_c       7.939007622477447
_cell_angle_alpha    59.99999954807349
_cell_angle_beta     60.00000025467962
_cell_angle_gamma    59.99999950339136

_space_group_name_H-M_alt    "P 1"
_space_group_IT_number       1

loop_
  _space_group_symop_operation_xyz
  'x, y, z'

loop_
  _atom_site_type_symbol
  _atom_site_label
  _atom_site_symmetry_multiplicity
  _atom_site_fract_x
  _atom_site_fract_y
  _atom_site_fract_z
  _atom_site_occupancy
  In  In1       1.0  0.2500000006738323  0.2499999888159339  0.2500000134376703  1.0000
  In  In2       1.0  0.7499999997729794  0.7500000081005039  0.7499999954188529  1.0000
  Ge  Ge1       1.0  0.9999999870862749  0.999999990743844  1.4863750336293292e-08  1.0000
  I   I1        1.0  0.2583322779361235  0.25833226870245346  0.7416677095411982  1.0000
  I   I2        1.0  0.7416677351748666  0.7416677251285989  0.2583322642954501  1.0000
  I   I3        1.0  0.7416677095047061  0.2583322878764918  0.258332274079571  1.0000
  I   I4        1.0  0.25833227441362633  0.7416677368084142  0.7416677140417185  1.0000
  I   I5        1.0  0.25833227503856643  0.7416677435768456  0.25833225426915585  1.0000
  I   I6        1.0  0.7416677463732085  0.2583322471688213  0.7416677585267007  1.0000
