data_image0
_chemical_formula_structural       In2HgI6
_chemical_formula_sum              "In2 Hg1 I6"
_cell_length_a       7.976434193457354
_cell_length_b       7.976434080043197
_cell_length_c       7.9764341454259915
_cell_angle_alpha    60.00000063507427
_cell_angle_beta     59.99999952179459
_cell_angle_gamma    59.99999994668672

_space_group_name_H-M_alt    "P 1"
_space_group_IT_number       1

loop_
  _space_group_symop_operation_xyz
  'x, y, z'

loop_
  _atom_site_type_symbol
  _atom_site_label
  _atom_site_symmetry_multiplicity
  _atom_site_fract_x
  _atom_site_fract_y
  _atom_site_fract_z
  _atom_site_occupancy
  In  In1       1.0  0.2500000119314183  0.24999999120239857  0.24999999977900145  1.0000
  In  In2       1.0  0.7499999898787111  0.7500000027808243  0.7500000139764278  1.0000
  Hg  Hg1       1.0  1.10693020357741e-08  1.5354543150170753e-09  8.741938300366831e-09  1.0000
  I   I1        1.0  0.264324205337324  0.26432417087086163  0.7356758054043041  1.0000
  I   I2        1.0  0.7356758122212178  0.7356758323250856  0.26432416202084436  1.0000
  I   I3        1.0  0.7356757818041874  0.2643241890437092  0.26432421925773325  1.0000
  I   I4        1.0  0.26432419326097517  0.7356758156876927  0.7356758012423968  1.0000
  I   I5        1.0  0.2643241783882701  0.7356758265288544  0.2643241903126815  1.0000
  I   I6        1.0  0.7356758151600232  0.26432417052527646  0.7356757997106578  1.0000
