data_image0
_chemical_formula_structural       In2HgBr6
_chemical_formula_sum              "In2 Hg1 Br6"
_cell_length_a       7.505382133771705
_cell_length_b       7.505382121027579
_cell_length_c       7.505382041328225
_cell_angle_alpha    60.00000017859737
_cell_angle_beta     59.999999989584595
_cell_angle_gamma    59.99999990766917

_space_group_name_H-M_alt    "P 1"
_space_group_IT_number       1

loop_
  _space_group_symop_operation_xyz
  'x, y, z'

loop_
  _atom_site_type_symbol
  _atom_site_label
  _atom_site_symmetry_multiplicity
  _atom_site_fract_x
  _atom_site_fract_y
  _atom_site_fract_z
  _atom_site_occupancy
  In  In1       1.0  0.24999999732316916  0.2499999925249565  0.25000000520409327  1.0000
  In  In2       1.0  0.7500000040908301  0.7499999873658022  0.7499999700143445  1.0000
  Hg  Hg1       1.0  0.9999999794716147  0.9999999738908458  4.0639673586204646e-08  1.0000
  Br  Br1       1.0  0.2614144467827675  0.26141444946587267  0.7385855665205585  1.0000
  Br  Br2       1.0  0.7385855388569506  0.7385855777477284  0.26141446753672276  1.0000
  Br  Br3       1.0  0.7385856086887101  0.2614144079394413  0.26141440583113107  1.0000
  Br  Br4       1.0  0.2614144487484353  0.7385855654240289  0.73858553398036  1.0000
  Br  Br5       1.0  0.26141440225740886  0.7385856047683743  0.26141445415256703  1.0000
  Br  Br6       1.0  0.7385855737780274  0.2614144420270922  0.7385855682540362  1.0000
