data_image0
_chemical_formula_structural       In2HfCl6
_chemical_formula_sum              "In2 Hf1 Cl6"
_cell_length_a       7.236946486536024
_cell_length_b       7.236946614273632
_cell_length_c       7.236946644864991
_cell_angle_alpha    59.99999987886727
_cell_angle_beta     59.99999858151594
_cell_angle_gamma    60.00000145716695

_space_group_name_H-M_alt    "P 1"
_space_group_IT_number       1

loop_
  _space_group_symop_operation_xyz
  'x, y, z'

loop_
  _atom_site_type_symbol
  _atom_site_label
  _atom_site_symmetry_multiplicity
  _atom_site_fract_x
  _atom_site_fract_y
  _atom_site_fract_z
  _atom_site_occupancy
  In  In1       1.0  0.2500000016381718  0.24999999984927035  0.24999999902460374  1.0000
  In  In2       1.0  0.7500000038830689  0.7499999978554609  0.7499999984357095  1.0000
  Hf  Hf1       1.0  0.9999999209629262  1.6923501226284438e-08  0.999999945385297  1.0000
  Cl  Cl1       1.0  0.23988069218285515  0.23988070769303274  0.7601192428922356  1.0000
  Cl  Cl2       1.0  0.7601193348051878  0.7601193357051559  0.2398806684796153  1.0000
  Cl  Cl3       1.0  0.7601191810425822  0.23988079681123947  0.2398807914793812  1.0000
  Cl  Cl4       1.0  0.23988070653413426  0.7601193058192073  0.7601192719076607  1.0000
  Cl  Cl5       1.0  0.23988083014484568  0.7601191469545411  0.2398808236795063  1.0000
  Cl  Cl6       1.0  0.7601193249750315  0.23988070351571858  0.7601192624156079  1.0000
