data_image0
_chemical_formula_structural       In2HfI6
_chemical_formula_sum              "In2 Hf1 I6"
_cell_length_a       8.111876449555906
_cell_length_b       8.111876502702021
_cell_length_c       8.111876525217605
_cell_angle_alpha    59.99999907775173
_cell_angle_beta     59.99999983142429
_cell_angle_gamma    60.00000085898993

_space_group_name_H-M_alt    "P 1"
_space_group_IT_number       1

loop_
  _space_group_symop_operation_xyz
  'x, y, z'

loop_
  _atom_site_type_symbol
  _atom_site_label
  _atom_site_symmetry_multiplicity
  _atom_site_fract_x
  _atom_site_fract_y
  _atom_site_fract_z
  _atom_site_occupancy
  In  In1       1.0  0.25000003517499725  0.24999998201063225  0.24999998238447746  1.0000
  In  In2       1.0  0.7499999835654791  0.7500000215227428  0.7500000086033369  1.0000
  Hf  Hf1       1.0  0.9999999547795654  7.549085372385564e-09  0.9999999004906779  1.0000
  I   I1        1.0  0.2470115680564056  0.24701158872679532  0.7529884135124432  1.0000
  I   I2        1.0  0.7529884505113751  0.7529884238654818  0.24701155947190362  1.0000
  I   I3        1.0  0.7529883497113049  0.24701164817779517  0.2470116456543352  1.0000
  I   I4        1.0  0.24701157060748  0.7529884157482567  0.7529884111928806  1.0000
  I   I5        1.0  0.2470116509804217  0.7529883603864445  0.24701163027368486  1.0000
  I   I6        1.0  0.7529884373102551  0.24701155406773004  0.7529884481425341  1.0000
