data_image0
_chemical_formula_structural       In2HgCl6
_chemical_formula_sum              "In2 Hg1 Cl6"
_cell_length_a       7.257179690961286
_cell_length_b       7.25717950440865
_cell_length_c       7.2571792309853
_cell_angle_alpha    60.0000005382726
_cell_angle_beta     60.00000062270828
_cell_angle_gamma    60.00000096936659

_space_group_name_H-M_alt    "P 1"
_space_group_IT_number       1

loop_
  _space_group_symop_operation_xyz
  'x, y, z'

loop_
  _atom_site_type_symbol
  _atom_site_label
  _atom_site_symmetry_multiplicity
  _atom_site_fract_x
  _atom_site_fract_y
  _atom_site_fract_z
  _atom_site_occupancy
  In  In1       1.0  0.24999994116112564  0.2499999675820815  0.24999997736340537  1.0000
  In  In2       1.0  0.7499999686745987  0.7500000208804882  0.7500000663710301  1.0000
  Hg  Hg1       1.0  0.9999999619097646  0.9999999949371035  2.1576566455222997e-08  1.0000
  Cl  Cl1       1.0  0.2560126587026782  0.256012592657163  0.7439873892537757  1.0000
  Cl  Cl2       1.0  0.7439873918735986  0.7439874413714734  0.2560125668391319  1.0000
  Cl  Cl3       1.0  0.7439873886538497  0.2560126360359081  0.2560125946592631  1.0000
  Cl  Cl4       1.0  0.2560126355325388  0.7439873912421997  0.7439873587126113  1.0000
  Cl  Cl5       1.0  0.25601264249366495  0.7439873586884596  0.25601261474943854  1.0000
  Cl  Cl6       1.0  0.7439874131786266  0.25601260277199905  0.743987409528197  1.0000
