data_image0
_chemical_formula_structural       In2HfF6
_chemical_formula_sum              "In2 Hf1 F6"
_cell_length_a       6.221259774964571
_cell_length_b       6.221259680370041
_cell_length_c       6.2212599201900245
_cell_angle_alpha    60.00000005940151
_cell_angle_beta     59.99999998142571
_cell_angle_gamma    59.99999885515584

_space_group_name_H-M_alt    "P 1"
_space_group_IT_number       1

loop_
  _space_group_symop_operation_xyz
  'x, y, z'

loop_
  _atom_site_type_symbol
  _atom_site_label
  _atom_site_symmetry_multiplicity
  _atom_site_fract_x
  _atom_site_fract_y
  _atom_site_fract_z
  _atom_site_occupancy
  In  In1       1.0  0.24999997963667378  0.250000019562526  0.24999997057528822  1.0000
  In  In2       1.0  0.7499999865305761  0.750000027189267  0.7500000547595388  1.0000
  Hf  Hf1       1.0  6.224382202720131e-09  0.999999998031355  0.9999999625095195  1.0000
  F   F1        1.0  0.22798197582629331  0.2279819654216189  0.7720180425877508  1.0000
  F   F2        1.0  0.7720180564287977  0.772018022270837  0.22798191975934032  1.0000
  F   F3        1.0  0.7720180675345704  0.22798193475209394  0.22798194781243805  1.0000
  F   F4        1.0  0.22798191143852797  0.7720180568776518  0.7720180552809187  1.0000
  F   F5        1.0  0.22798197406521323  0.7720180403529442  0.22798195699444626  1.0000
  F   F6        1.0  0.7720180483852906  0.22798190993526687  0.7720181045044586  1.0000
