data_image0
_chemical_formula_structural       In2HfBr6
_chemical_formula_sum              "In2 Hf1 Br6"
_cell_length_a       7.606588100835826
_cell_length_b       7.6065881131321
_cell_length_c       7.6065881757223615
_cell_angle_alpha    59.999999864014654
_cell_angle_beta     59.999999594715106
_cell_angle_gamma    60.00000063095693

_space_group_name_H-M_alt    "P 1"
_space_group_IT_number       1

loop_
  _space_group_symop_operation_xyz
  'x, y, z'

loop_
  _atom_site_type_symbol
  _atom_site_label
  _atom_site_symmetry_multiplicity
  _atom_site_fract_x
  _atom_site_fract_y
  _atom_site_fract_z
  _atom_site_occupancy
  In  In1       1.0  0.2499999973008999  0.24999999661436406  0.25000000080117113  1.0000
  In  In2       1.0  0.750000005917478  0.7499999978936456  0.7499999847975982  1.0000
  Hf  Hf1       1.0  4.7366682569300705e-08  0.999999930765242  2.17334064012971e-07  1.0000
  Br  Br1       1.0  0.24348803129993088  0.24348804978387223  0.7565119903615425  1.0000
  Br  Br2       1.0  0.7565119369880292  0.7565119720960186  0.24348806080503796  1.0000
  Br  Br3       1.0  0.7565119965162429  0.24348802141067816  0.24348800929079378  1.0000
  Br  Br4       1.0  0.24348813087520169  0.7565118829311348  0.7565118593911516  1.0000
  Br  Br5       1.0  0.24348797846302186  0.7565120317249241  0.2434879863894288  1.0000
  Br  Br6       1.0  0.7565118684879596  0.2434881173537084  0.7565118896271401  1.0000
