data_image0
_chemical_formula_structural       In2IrF6
_chemical_formula_sum              "In2 Ir1 F6"
_cell_length_a       6.056383370301856
_cell_length_b       6.056383041866073
_cell_length_c       6.056383174424242
_cell_angle_alpha    60.0000005627077
_cell_angle_beta     60.00000156377923
_cell_angle_gamma    59.99999935602866

_space_group_name_H-M_alt    "P 1"
_space_group_IT_number       1

loop_
  _space_group_symop_operation_xyz
  'x, y, z'

loop_
  _atom_site_type_symbol
  _atom_site_label
  _atom_site_symmetry_multiplicity
  _atom_site_fract_x
  _atom_site_fract_y
  _atom_site_fract_z
  _atom_site_occupancy
  In  In1       1.0  0.24999998777284557  0.2500000121460275  0.24999994937721093  1.0000
  In  In2       1.0  0.7500000557399685  0.750000022282417  0.7499999542999922  1.0000
  Ir  Ir1       1.0  1.066961625998995e-08  0.999999973710904  0.9999999912982348  1.0000
  F   F1        1.0  0.23325767666771013  0.23325769669427524  0.7667422942625308  1.0000
  F   F2        1.0  0.7667422642563596  0.7667422851559784  0.23325770516079475  1.0000
  F   F3        1.0  0.7667423310670479  0.23325765515310717  0.23325767622378318  1.0000
  F   F4        1.0  0.2332576865631641  0.7667423368083385  0.7667423986737101  1.0000
  F   F5        1.0  0.23325767001205253  0.7667423441778594  0.23325765387739986  1.0000
  F   F6        1.0  0.7667423287637806  0.23325767002820538  0.7667423879531143  1.0000
