data_image0
_chemical_formula_structural       In2IrI6
_chemical_formula_sum              "In2 Ir1 I6"
_cell_length_a       7.782808110554711
_cell_length_b       7.782808352935856
_cell_length_c       7.782808044708451
_cell_angle_alpha    60.00000099363534
_cell_angle_beta     60.00000076022186
_cell_angle_gamma    60.00000050486392

_space_group_name_H-M_alt    "P 1"
_space_group_IT_number       1

loop_
  _space_group_symop_operation_xyz
  'x, y, z'

loop_
  _atom_site_type_symbol
  _atom_site_label
  _atom_site_symmetry_multiplicity
  _atom_site_fract_x
  _atom_site_fract_y
  _atom_site_fract_z
  _atom_site_occupancy
  In  In1       1.0  0.2500000008040994  0.2499999795614954  0.25000002652788167  1.0000
  In  In2       1.0  0.7499999979150078  0.7500000189408477  0.7499999838843612  1.0000
  Ir  Ir1       1.0  0.9999999910080687  4.72096260334836e-09  0.9999999790075851  1.0000
  I   I1        1.0  0.24443922290170308  0.24443918674611595  0.7555607858797249  1.0000
  I   I2        1.0  0.7555608028677551  0.7555608196244976  0.24443919293949098  1.0000
  I   I3        1.0  0.7555608136461526  0.24443917658634864  0.24443916791011538  1.0000
  I   I4        1.0  0.2444391555644028  0.75556083922619  0.7555608563106048  1.0000
  I   I5        1.0  0.24443919985782323  0.7555607790413065  0.24443919876638234  1.0000
  I   I6        1.0  0.7555608146723831  0.24443919428257027  0.7555608111900107  1.0000
