data_image0
_chemical_formula_structural       In2IrCl6
_chemical_formula_sum              "In2 Ir1 Cl6"
_cell_length_a       7.141415593922367
_cell_length_b       7.1414153186215845
_cell_length_c       7.141415474776143
_cell_angle_alpha    60.00000010956494
_cell_angle_beta     60.00000038431372
_cell_angle_gamma    59.9999959692152

_space_group_name_H-M_alt    "P 1"
_space_group_IT_number       1

loop_
  _space_group_symop_operation_xyz
  'x, y, z'

loop_
  _atom_site_type_symbol
  _atom_site_label
  _atom_site_symmetry_multiplicity
  _atom_site_fract_x
  _atom_site_fract_y
  _atom_site_fract_z
  _atom_site_occupancy
  In  In1       1.0  0.2500000570202111  0.25000007356308723  0.24999995453477913  1.0000
  In  In2       1.0  0.749999971354605  0.7499998399617044  0.7500001062115186  1.0000
  Ir  Ir1       1.0  0.9999999347352253  3.086980182723401e-08  0.9999996895313528  1.0000
  Cl  Cl1       1.0  0.23300788339075937  0.2330080554377797  0.7669920212865311  1.0000
  Cl  Cl2       1.0  0.7669920328597376  0.7669920004311057  0.23300798654224936  1.0000
  Cl  Cl3       1.0  0.7669921304764675  0.23300793201893527  0.23300791122900474  1.0000
  Cl  Cl4       1.0  0.23300780863765533  0.7669922250343034  0.7669921844060277  1.0000
  Cl  Cl5       1.0  0.23300795827797083  0.766992060160385  0.2330079344944507  1.0000
  Cl  Cl6       1.0  0.7669922484806947  0.23300776932993822  0.7669922037023091  1.0000
