data_image0
_chemical_formula_structural       In2IrBr6
_chemical_formula_sum              "In2 Ir1 Br6"
_cell_length_a       7.43920940353593
_cell_length_b       7.439209606783961
_cell_length_c       7.4392094339182115
_cell_angle_alpha    59.99999983258748
_cell_angle_beta     60.00000163583562
_cell_angle_gamma    60.00000065986538

_space_group_name_H-M_alt    "P 1"
_space_group_IT_number       1

loop_
  _space_group_symop_operation_xyz
  'x, y, z'

loop_
  _atom_site_type_symbol
  _atom_site_label
  _atom_site_symmetry_multiplicity
  _atom_site_fract_x
  _atom_site_fract_y
  _atom_site_fract_z
  _atom_site_occupancy
  In  In1       1.0  0.24999999135744372  0.2500000010380755  0.2500000111652569  1.0000
  In  In2       1.0  0.7500000070447699  0.749999983358179  0.7499999892491676  1.0000
  Ir  Ir1       1.0  1.0130954825631995e-08  0.9999998485369614  1.4191017252471372e-07  1.0000
  Br  Br1       1.0  0.23788333246550272  0.2378833725077219  0.7621166511760352  1.0000
  Br  Br2       1.0  0.7621167183019601  0.7621166876200509  0.23788330535343855  1.0000
  Br  Br3       1.0  0.7621166769114988  0.23788336069309876  0.23788328615388654  1.0000
  Br  Br4       1.0  0.23788334329926072  0.7621166467518788  0.762116689143446  1.0000
  Br  Br5       1.0  0.23788322384952373  0.7621167628349694  0.2378832135141185  1.0000
  Br  Br6       1.0  0.7621166921282816  0.2378833384512386  0.7621167145541483  1.0000
