data_image0
_chemical_formula_structural       In2MgBr6
_chemical_formula_sum              "In2 Mg1 Br6"
_cell_length_a       7.4814931433508445
_cell_length_b       7.481493194471541
_cell_length_c       7.481493237286133
_cell_angle_alpha    60.00000050867079
_cell_angle_beta     59.99999937917497
_cell_angle_gamma    59.99999997016116

_space_group_name_H-M_alt    "P 1"
_space_group_IT_number       1

loop_
  _space_group_symop_operation_xyz
  'x, y, z'

loop_
  _atom_site_type_symbol
  _atom_site_label
  _atom_site_symmetry_multiplicity
  _atom_site_fract_x
  _atom_site_fract_y
  _atom_site_fract_z
  _atom_site_occupancy
  In  In1       1.0  0.25000007918176376  0.24999999483743723  0.24999993469637605  1.0000
  In  In2       1.0  0.749999980745494  0.7500000696380107  0.7499999353716512  1.0000
  Mg  Mg1       1.0  0.9999999985502142  0.9999999950889021  1.1200231196533081e-08  1.0000
  Br  Br1       1.0  0.2512045512448883  0.25120455890604315  0.7487954569153132  1.0000
  Br  Br2       1.0  0.7487954456219644  0.7487954400880998  0.25120459772040954  1.0000
  Br  Br3       1.0  0.7487954470674759  0.2512045321690055  0.2512045604579791  1.0000
  Br  Br4       1.0  0.2512045474615463  0.7487954275363534  0.7487954548426303  1.0000
  Br  Br5       1.0  0.25120453448288593  0.7487954510423788  0.2512045714041526  1.0000
  Br  Br6       1.0  0.7487954105473547  0.25120454140363346  0.7487954643052055  1.0000
