data_image0
_chemical_formula_structural       In2MnBr6
_chemical_formula_sum              "In2 Mn1 Br6"
_cell_length_a       7.528879497403361
_cell_length_b       7.528880196751516
_cell_length_c       7.528880898228314
_cell_angle_alpha    59.99999623752235
_cell_angle_beta     59.99999131601485
_cell_angle_gamma    59.999994269055534

_space_group_name_H-M_alt    "P 1"
_space_group_IT_number       1

loop_
  _space_group_symop_operation_xyz
  'x, y, z'

loop_
  _atom_site_type_symbol
  _atom_site_label
  _atom_site_symmetry_multiplicity
  _atom_site_fract_x
  _atom_site_fract_y
  _atom_site_fract_z
  _atom_site_occupancy
  In  In1       1.0  0.24999999039587853  0.25000000587257  0.2500000052169183  1.0000
  In  In2       1.0  0.7500000185620815  0.7499999997236867  0.7499999902847935  1.0000
  Mn  Mn1       1.0  1.1883880703626696e-07  0.9999999609584942  0.9999999215830065  1.0000
  Br  Br1       1.0  0.22061309330613918  0.2206131990713728  0.7793868194745189  1.0000
  Br  Br2       1.0  0.7793867710512236  0.7793867756170357  0.22061321596554723  1.0000
  Br  Br3       1.0  0.7793867783106037  0.22061317035317565  0.2206132180717578  1.0000
  Br  Br4       1.0  0.22061322339616465  0.7793868938053322  0.7793867809952345  1.0000
  Br  Br5       1.0  0.2206133090273338  0.7793868130652218  0.22061314182104044  1.0000
  Br  Br6       1.0  0.7793867097680737  0.2206131860241176  0.779386909128808  1.0000
