data_image0
_chemical_formula_structural       In2MnCl6
_chemical_formula_sum              "In2 Mn1 Cl6"
_cell_length_a       7.138571528284602
_cell_length_b       7.138571201037728
_cell_length_c       7.138571875893043
_cell_angle_alpha    60.0000035630536
_cell_angle_beta     60.0000020414609
_cell_angle_gamma    60.00000431235955

_space_group_name_H-M_alt    "P 1"
_space_group_IT_number       1

loop_
  _space_group_symop_operation_xyz
  'x, y, z'

loop_
  _atom_site_type_symbol
  _atom_site_label
  _atom_site_symmetry_multiplicity
  _atom_site_fract_x
  _atom_site_fract_y
  _atom_site_fract_z
  _atom_site_occupancy
  In  In1       1.0  0.2499996690784666  0.2500002748392873  0.2500000632789874  1.0000
  In  In2       1.0  0.7500001810090415  0.7499996664391443  0.7499998738045822  1.0000
  Mn  Mn1       1.0  1.0636014871864906e-08  3.602912489173963e-08  1.0974727180308619e-07  1.0000
  Cl  Cl1       1.0  0.2257498550199727  0.2257496679065487  0.7742502217365109  1.0000
  Cl  Cl2       1.0  0.7742501682912566  0.7742503505771487  0.2257497652376256  1.0000
  Cl  Cl3       1.0  0.7742502613525575  0.22574980991218951  0.2257497773708033  1.0000
  Cl  Cl4       1.0  0.22574986935339467  0.7742502600416769  0.7742501175633293  1.0000
  Cl  Cl5       1.0  0.2257498229311714  0.7742502174333273  0.22574981522034482  1.0000
  Cl  Cl6       1.0  0.7742501709389907  0.2257497049727284  0.7742502779391935  1.0000
