data_image0
_chemical_formula_structural       In2MoI6
_chemical_formula_sum              "In2 Mo1 I6"
_cell_length_a       7.933311615940435
_cell_length_b       7.933311703794108
_cell_length_c       7.933311875086636
_cell_angle_alpha    59.999997434639056
_cell_angle_beta     59.99999868502269
_cell_angle_gamma    60.00000085854072

_space_group_name_H-M_alt    "P 1"
_space_group_IT_number       1

loop_
  _space_group_symop_operation_xyz
  'x, y, z'

loop_
  _atom_site_type_symbol
  _atom_site_label
  _atom_site_symmetry_multiplicity
  _atom_site_fract_x
  _atom_site_fract_y
  _atom_site_fract_z
  _atom_site_occupancy
  In  In1       1.0  0.2500000141614969  0.2499999974256982  0.24999999939928544  1.0000
  In  In2       1.0  0.7500000081551693  0.7499999861018927  0.7500000108870726  1.0000
  Mo  Mo1       1.0  0.9999999646414778  0.9999999969124009  0.9999998994748377  1.0000
  I   I1        1.0  0.24788964219385484  0.24788966172532084  0.7521103472736855  1.0000
  I   I2        1.0  0.7521103876777819  0.7521104344996923  0.24788958145784487  1.0000
  I   I3        1.0  0.7521102422168142  0.24788975488362536  0.24788973342287812  1.0000
  I   I4        1.0  0.24788968013889656  0.7521103058339773  0.7521103147196107  1.0000
  I   I5        1.0  0.24788974417116946  0.7521102526724835  0.24788972613006244  1.0000
  I   I6        1.0  0.7521103240180458  0.24788961507008564  0.7521103720538532  1.0000
