data_image0
_chemical_formula_structural       In2MnF6
_chemical_formula_sum              "In2 Mn1 F6"
_cell_length_a       5.807588544608395
_cell_length_b       5.807589096803958
_cell_length_c       5.8075887905649415
_cell_angle_alpha    59.999999769234904
_cell_angle_beta     59.999997196420765
_cell_angle_gamma    59.99999951712591

_space_group_name_H-M_alt    "P 1"
_space_group_IT_number       1

loop_
  _space_group_symop_operation_xyz
  'x, y, z'

loop_
  _atom_site_type_symbol
  _atom_site_label
  _atom_site_symmetry_multiplicity
  _atom_site_fract_x
  _atom_site_fract_y
  _atom_site_fract_z
  _atom_site_occupancy
  In  In1       1.0  0.2500000138742956  0.2500000170538231  0.25000009777655  1.0000
  In  In2       1.0  0.7499999598044133  0.7499999625889512  0.7499999308350491  1.0000
  Mn  Mn1       1.0  5.1112454911409596e-08  0.9999999957822591  1.959976744512957e-08  1.0000
  F   F1        1.0  0.2314093154191795  0.23140930812485253  0.7685906959985936  1.0000
  F   F2        1.0  0.7685906363472671  0.7685907432194923  0.23140926983688082  1.0000
  F   F3        1.0  0.7685906173645451  0.23140933537888722  0.23140931857082742  1.0000
  F   F4        1.0  0.2314094047354011  0.7685906421550166  0.7685906799970477  1.0000
  F   F5        1.0  0.23140934341381333  0.7685906639886196  0.23140929063915328  1.0000
  F   F6        1.0  0.7685906751713499  0.23140932408963322  0.7685906785856637  1.0000
