data_image0
_chemical_formula_structural       In2MnCl6
_chemical_formula_sum              "In2 Mn1 Cl6"
_cell_length_a       7.136509302866462
_cell_length_b       7.136509659470772
_cell_length_c       7.136509634802401
_cell_angle_alpha    60.00000115293529
_cell_angle_beta     60.000000437072046
_cell_angle_gamma    60.00000108512928

_space_group_name_H-M_alt    "P 1"
_space_group_IT_number       1

loop_
  _space_group_symop_operation_xyz
  'x, y, z'

loop_
  _atom_site_type_symbol
  _atom_site_label
  _atom_site_symmetry_multiplicity
  _atom_site_fract_x
  _atom_site_fract_y
  _atom_site_fract_z
  _atom_site_occupancy
  In  In1       1.0  0.25000004477313875  0.24999989132113135  0.2500000071847284  1.0000
  In  In2       1.0  0.7500000144315949  0.7500001064376949  0.7499998862796253  1.0000
  Mn  Mn1       1.0  1.0967213359959848e-08  0.9999999622443073  6.243782218875364e-08  1.0000
  Cl  Cl1       1.0  0.22590067200999858  0.22590060813975404  0.7740993419783759  1.0000
  Cl  Cl2       1.0  0.7740994197345695  0.774099408496919  0.225900623864303  1.0000
  Cl  Cl3       1.0  0.7740993584973088  0.22590055647842125  0.22590063401090313  1.0000
  Cl  Cl4       1.0  0.22590059522492584  0.77409948590077  0.7740993851691911  1.0000
  Cl  Cl5       1.0  0.2259005412661344  0.7740994063115323  0.22590060542005744  1.0000
  Cl  Cl6       1.0  0.774099357656603  0.2259005965957985  0.7740994707044311  1.0000
