data_image0
_chemical_formula_structural       In2MgCl6
_chemical_formula_sum              "In2 Mg1 Cl6"
_cell_length_a       7.179921127513514
_cell_length_b       7.17992131415327
_cell_length_c       7.1799211641034795
_cell_angle_alpha    60.00000397396739
_cell_angle_beta     60.00000175877317
_cell_angle_gamma    60.00000241349005

_space_group_name_H-M_alt    "P 1"
_space_group_IT_number       1

loop_
  _space_group_symop_operation_xyz
  'x, y, z'

loop_
  _atom_site_type_symbol
  _atom_site_label
  _atom_site_symmetry_multiplicity
  _atom_site_fract_x
  _atom_site_fract_y
  _atom_site_fract_z
  _atom_site_occupancy
  In  In1       1.0  0.25000009449247174  0.2500000982230645  0.2499998992723915  1.0000
  In  In2       1.0  0.7500001177540644  0.7499999330414193  0.7500001592664849  1.0000
  Mg  Mg1       1.0  0.999999959891664  0.9999999948826251  0.9999999989357145  1.0000
  Cl  Cl1       1.0  0.24401845617856283  0.24401848096673112  0.7559815098229525  1.0000
  Cl  Cl2       1.0  0.755981440123547  0.7559815042413744  0.24401837038089863  1.0000
  Cl  Cl3       1.0  0.7559815226934478  0.2440185142287886  0.24401844642615986  1.0000
  Cl  Cl4       1.0  0.24401847437565063  0.7559814436866594  0.7559815753154646  1.0000
  Cl  Cl5       1.0  0.2440184429305733  0.7559814744200086  0.24401854906071774  1.0000
  Cl  Cl6       1.0  0.755981501309203  0.2440185551386793  0.7559814646667218  1.0000
