data_image0
_chemical_formula_structural       In2MnI6
_chemical_formula_sum              "In2 Mn1 I6"
_cell_length_a       7.833029138946211
_cell_length_b       7.83302890716106
_cell_length_c       7.8330292143209075
_cell_angle_alpha    60.00000031986524
_cell_angle_beta     59.99999993668936
_cell_angle_gamma    60.000000268589986

_space_group_name_H-M_alt    "P 1"
_space_group_IT_number       1

loop_
  _space_group_symop_operation_xyz
  'x, y, z'

loop_
  _atom_site_type_symbol
  _atom_site_label
  _atom_site_symmetry_multiplicity
  _atom_site_fract_x
  _atom_site_fract_y
  _atom_site_fract_z
  _atom_site_occupancy
  In  In1       1.0  0.24999996440750868  0.25000002699187407  0.2500000260728362  1.0000
  In  In2       1.0  0.7500000186447912  0.7500000231237226  0.749999988260932  1.0000
  Mn  Mn1       1.0  0.9999999486938658  0.9999996497614793  5.773826891795208e-07  1.0000
  I   I1        1.0  0.23898293953349622  0.23898297002308583  0.7610170837972665  1.0000
  I   I2        1.0  0.7610172220509794  0.7610172520846459  0.2389827539977033  1.0000
  I   I3        1.0  0.7610172353196341  0.23898279240888906  0.23898279929593724  1.0000
  I   I4        1.0  0.23898297593115247  0.7610170153541539  0.7610170318947109  1.0000
  I   I5        1.0  0.23898272363758574  0.7610172861658284  0.23898273065012798  1.0000
  I   I6        1.0  0.7610169723552717  0.23898297503101598  0.7610170101712842  1.0000
