data_image0
_chemical_formula_structural       In2MnBr6
_chemical_formula_sum              "In2 Mn1 Br6"
_cell_length_a       7.528443957921697
_cell_length_b       7.528443869108968
_cell_length_c       7.528443919592739
_cell_angle_alpha    60.000001776649356
_cell_angle_beta     60.0000023792204
_cell_angle_gamma    60.00000103149805

_space_group_name_H-M_alt    "P 1"
_space_group_IT_number       1

loop_
  _space_group_symop_operation_xyz
  'x, y, z'

loop_
  _atom_site_type_symbol
  _atom_site_label
  _atom_site_symmetry_multiplicity
  _atom_site_fract_x
  _atom_site_fract_y
  _atom_site_fract_z
  _atom_site_occupancy
  In  In1       1.0  0.2500000310827953  0.25000003408031185  0.250000012590679  1.0000
  In  In2       1.0  0.750000086650791  0.7499999655877703  0.7500000190733045  1.0000
  Mn  Mn1       1.0  0.9999999908903375  0.9999999951195303  3.6217572178477005e-08  1.0000
  Br  Br1       1.0  0.22070620977035635  0.22070617910390722  0.7792938046682097  1.0000
  Br  Br2       1.0  0.7792937766931386  0.7792938140568799  0.220706196262284  1.0000
  Br  Br3       1.0  0.77929377628463  0.2207062007700551  0.22070621597787304  1.0000
  Br  Br4       1.0  0.2207061928739719  0.7792937614810875  0.7792938024184098  1.0000
  Br  Br5       1.0  0.2207061781033544  0.7792938006705443  0.22070613585245913  1.0000
  Br  Br6       1.0  0.7792937544597015  0.22070625756317677  0.7792937651827896  1.0000
