data_image0
_chemical_formula_structural       In2MnF6
_chemical_formula_sum              "In2 Mn1 F6"
_cell_length_a       5.80492967761957
_cell_length_b       5.8049296008765685
_cell_length_c       5.804929892195578
_cell_angle_alpha    59.999998355974896
_cell_angle_beta     59.99999713349915
_cell_angle_gamma    60.00000052330658

_space_group_name_H-M_alt    "P 1"
_space_group_IT_number       1

loop_
  _space_group_symop_operation_xyz
  'x, y, z'

loop_
  _atom_site_type_symbol
  _atom_site_label
  _atom_site_symmetry_multiplicity
  _atom_site_fract_x
  _atom_site_fract_y
  _atom_site_fract_z
  _atom_site_occupancy
  In  In1       1.0  0.24999996314163384  0.25000001904935354  0.24999994448523163  1.0000
  In  In2       1.0  0.7500000675679107  0.7499999643152864  0.7499999200011018  1.0000
  Mn  Mn1       1.0  6.180570766917979e-08  0.9999999578032838  1.431293518811256e-08  1.0000
  F   F1        1.0  0.2314513163504059  0.23145150084248753  0.7685486002369637  1.0000
  F   F2        1.0  0.7685486168068824  0.768548625990992  0.23145144973459592  1.0000
  F   F3        1.0  0.768548580976341  0.2314514250536902  0.2314514259592722  1.0000
  F   F4        1.0  0.2314514363123517  0.7685484971257087  0.768548508560908  1.0000
  F   F5        1.0  0.2314514649382012  0.768548527449185  0.23145156010506437  1.0000
  F   F6        1.0  0.7685484961296045  0.23145149178266514  0.7685485727788932  1.0000
