data_image0
_chemical_formula_structural       In2MgI6
_chemical_formula_sum              "In2 Mg1 I6"
_cell_length_a       7.961898003742128
_cell_length_b       7.961897981693614
_cell_length_c       7.96189794684819
_cell_angle_alpha    60.00000012902435
_cell_angle_beta     60.00000049908811
_cell_angle_gamma    60.00000005313948

_space_group_name_H-M_alt    "P 1"
_space_group_IT_number       1

loop_
  _space_group_symop_operation_xyz
  'x, y, z'

loop_
  _atom_site_type_symbol
  _atom_site_label
  _atom_site_symmetry_multiplicity
  _atom_site_fract_x
  _atom_site_fract_y
  _atom_site_fract_z
  _atom_site_occupancy
  In  In1       1.0  0.2499999898580977  0.2500000038247589  0.24999999817117896  1.0000
  In  In2       1.0  0.7499999958553363  0.7500000022447321  0.7499999960356433  1.0000
  Mg  Mg1       1.0  0.9999999807064489  2.3073861400599978e-08  2.1973501591009058e-08  1.0000
  I   I1        1.0  0.2566784296127105  0.2566784663043166  0.7433215554283717  1.0000
  I   I2        1.0  0.7433215630153349  0.7433215320738872  0.256678466798391  1.0000
  I   I3        1.0  0.7433215608177518  0.2566784370934691  0.2566784352224884  1.0000
  I   I4        1.0  0.2566784743083725  0.7433215382108733  0.7433215345887797  1.0000
  I   I5        1.0  0.2566784506360115  0.7433215618547144  0.2566784457483518  1.0000
  I   I6        1.0  0.7433215521440147  0.2566784365234895  0.7433215462827818  1.0000
