data_image0
_chemical_formula_structural       In2MoF6
_chemical_formula_sum              "In2 Mo1 F6"
_cell_length_a       6.117817743336984
_cell_length_b       6.117817246487855
_cell_length_c       6.117817421342386
_cell_angle_alpha    59.999998276967474
_cell_angle_beta     59.99999815256001
_cell_angle_gamma    59.999998745165705

_space_group_name_H-M_alt    "P 1"
_space_group_IT_number       1

loop_
  _space_group_symop_operation_xyz
  'x, y, z'

loop_
  _atom_site_type_symbol
  _atom_site_label
  _atom_site_symmetry_multiplicity
  _atom_site_fract_x
  _atom_site_fract_y
  _atom_site_fract_z
  _atom_site_occupancy
  In  In1       1.0  0.2500000752772229  0.2499999402948604  0.2499999626056873  1.0000
  In  In2       1.0  0.7499999256862608  0.7500000871414221  0.750000001200974  1.0000
  Mo  Mo1       1.0  0.9999999965686  0.9999999819826195  1.5628100092814457e-08  1.0000
  F   F1        1.0  0.23438110021844125  0.23438108171573202  0.765618899445142  1.0000
  F   F2        1.0  0.7656188815271789  0.7656189637379306  0.23438106005805182  1.0000
  F   F3        1.0  0.7656189134218111  0.23438105399753748  0.23438113705930969  1.0000
  F   F4        1.0  0.23438114201249122  0.7656188553248074  0.7656189076060063  1.0000
  F   F5        1.0  0.2343811026162224  0.7656189348831163  0.234381087151586  1.0000
  F   F6        1.0  0.7656188846968639  0.2343810825435104  0.7656189342530586  1.0000
