data_image0
_chemical_formula_structural       In2MnI6
_chemical_formula_sum              "In2 Mn1 I6"
_cell_length_a       7.8323375971923594
_cell_length_b       7.832337313211148
_cell_length_c       7.832337505981196
_cell_angle_alpha    60.00000014065472
_cell_angle_beta     59.999999253654764
_cell_angle_gamma    60.00000131519311

_space_group_name_H-M_alt    "P 1"
_space_group_IT_number       1

loop_
  _space_group_symop_operation_xyz
  'x, y, z'

loop_
  _atom_site_type_symbol
  _atom_site_label
  _atom_site_symmetry_multiplicity
  _atom_site_fract_x
  _atom_site_fract_y
  _atom_site_fract_z
  _atom_site_occupancy
  In  In1       1.0  0.24999998330347953  0.2500000243998995  0.25000004267257026  1.0000
  In  In2       1.0  0.7500000220476856  0.7499999496671678  0.7499999839065297  1.0000
  Mn  Mn1       1.0  0.9999999948157077  1.1727772336369334e-07  2.912314763194279e-07  1.0000
  I   I1        1.0  0.23894160032541906  0.23894168734999133  0.761058351249178  1.0000
  I   I2        1.0  0.7610583342759765  0.7610582601341245  0.23894170484491212  1.0000
  I   I3        1.0  0.7610584227673122  0.23894151992721308  0.23894158066173568  1.0000
  I   I4        1.0  0.23894172611222197  0.7610582977695628  0.7610582110310508  1.0000
  I   I5        1.0  0.23894165387426133  0.7610584306188883  0.23894150905779724  1.0000
  I   I6        1.0  0.7610582721164687  0.23894171076438595  0.7610583088416298  1.0000
