data_image0
_chemical_formula_structural       In2MoBr6
_chemical_formula_sum              "In2 Mo1 Br6"
_cell_length_a       7.532996035618042
_cell_length_b       7.532996169072176
_cell_length_c       7.532996067725019
_cell_angle_alpha    59.9999996653882
_cell_angle_beta     59.99999959473686
_cell_angle_gamma    59.99999806205228

_space_group_name_H-M_alt    "P 1"
_space_group_IT_number       1

loop_
  _space_group_symop_operation_xyz
  'x, y, z'

loop_
  _atom_site_type_symbol
  _atom_site_label
  _atom_site_symmetry_multiplicity
  _atom_site_fract_x
  _atom_site_fract_y
  _atom_site_fract_z
  _atom_site_occupancy
  In  In1       1.0  0.24999999835480438  0.2500000016727841  0.2499999988285786  1.0000
  In  In2       1.0  0.7500000078692157  0.7500000033925115  0.749999996206227  1.0000
  Mo  Mo1       1.0  0.9999999781999763  0.9999999642315142  0.9999999730295466  1.0000
  Br  Br1       1.0  0.23987107571892627  0.23987109414890428  0.7601288988732003  1.0000
  Br  Br2       1.0  0.760128973672132  0.7601289515623981  0.23987103434268653  1.0000
  Br  Br3       1.0  0.7601289602778324  0.239871022633686  0.23987103566398957  1.0000
  Br  Br4       1.0  0.23987098605582832  0.7601290149484168  0.76012901553737  1.0000
  Br  Br5       1.0  0.23987100964839903  0.7601289621227189  0.23987104053525904  1.0000
  Br  Br6       1.0  0.7601290108522051  0.2398709909156861  0.760129014526985  1.0000
