data_image0
_chemical_formula_structural       In2MgF6
_chemical_formula_sum              "In2 Mg1 F6"
_cell_length_a       5.336369381339485
_cell_length_b       5.3363692760073995
_cell_length_c       5.336369393568113
_cell_angle_alpha    59.99999998261455
_cell_angle_beta     60.00000024945882
_cell_angle_gamma    59.999999688171506

_space_group_name_H-M_alt    "P 1"
_space_group_IT_number       1

loop_
  _space_group_symop_operation_xyz
  'x, y, z'

loop_
  _atom_site_type_symbol
  _atom_site_label
  _atom_site_symmetry_multiplicity
  _atom_site_fract_x
  _atom_site_fract_y
  _atom_site_fract_z
  _atom_site_occupancy
  In  In1       1.0  0.2500000429341486  0.25000002315245107  0.2499999657700571  1.0000
  In  In2       1.0  0.7500000237160214  0.7499999822439259  0.7499999728468307  1.0000
  Mg  Mg1       1.0  1.6613185991892075e-09  0.9999999885245492  1.6150665522163538e-08  1.0000
  F   F1        1.0  0.25097711195179995  0.25097717498679645  0.749022831593228  1.0000
  F   F2        1.0  0.749022838091453  0.7490228556555728  0.25097717519132096  1.0000
  F   F3        1.0  0.7490228488181319  0.2509771226897335  0.25097713398143806  1.0000
  F   F4        1.0  0.25097716275373944  0.7490228207392087  0.7490228837715817  1.0000
  F   F5        1.0  0.2509771301473518  0.749022874712265  0.25097714124603776  1.0000
  F   F6        1.0  0.7490228459931403  0.25097714904483387  0.7490228746718592  1.0000
