data_image0
_chemical_formula_structural       In2NiCl6
_chemical_formula_sum              "In2 Ni1 Cl6"
_cell_length_a       7.037973614856415
_cell_length_b       7.037973309889635
_cell_length_c       7.037973535858303
_cell_angle_alpha    60.000001900227545
_cell_angle_beta     59.99999984279677
_cell_angle_gamma    59.99999966942124

_space_group_name_H-M_alt    "P 1"
_space_group_IT_number       1

loop_
  _space_group_symop_operation_xyz
  'x, y, z'

loop_
  _atom_site_type_symbol
  _atom_site_label
  _atom_site_symmetry_multiplicity
  _atom_site_fract_x
  _atom_site_fract_y
  _atom_site_fract_z
  _atom_site_occupancy
  In  In1       1.0  0.2500001144655845  0.24999995595407024  0.24999996257847493  1.0000
  In  In2       1.0  0.7500000125952507  0.7499998069553735  0.7500000381219614  1.0000
  Ni  Ni1       1.0  0.9999999810568936  4.6985283486422104e-08  2.2468398750532864e-07  1.0000
  Cl  Cl1       1.0  0.23485039029900032  0.2348505586421059  0.7651495688009726  1.0000
  Cl  Cl2       1.0  0.7651495442172931  0.765149550566221  0.2348504772165662  1.0000
  Cl  Cl3       1.0  0.7651494567569991  0.2348505564166077  0.23485041436808995  1.0000
  Cl  Cl4       1.0  0.23485051524740888  0.7651494797035058  0.765149427794784  1.0000
  Cl  Cl5       1.0  0.2348505020196409  0.7651495426253401  0.2348504325148031  1.0000
  Cl  Cl6       1.0  0.7651494761493596  0.2348505143771197  0.7651494529591436  1.0000
