data_image0
_chemical_formula_structural       In2NbBr6
_chemical_formula_sum              "In2 Nb1 Br6"
_cell_length_a       7.588288705702098
_cell_length_b       7.588288723098857
_cell_length_c       7.588288760283503
_cell_angle_alpha    59.99999955008381
_cell_angle_beta     59.999999661448854
_cell_angle_gamma    60.00000143222181

_space_group_name_H-M_alt    "P 1"
_space_group_IT_number       1

loop_
  _space_group_symop_operation_xyz
  'x, y, z'

loop_
  _atom_site_type_symbol
  _atom_site_label
  _atom_site_symmetry_multiplicity
  _atom_site_fract_x
  _atom_site_fract_y
  _atom_site_fract_z
  _atom_site_occupancy
  In  In1       1.0  0.24999999707915338  0.2500000126062821  0.24999999176907228  1.0000
  In  In2       1.0  0.7499999829380859  0.7499999942410215  0.7500000157418385  1.0000
  Nb  Nb1       1.0  2.43628393457624e-08  0.999999972562111  0.9999999620029196  1.0000
  Br  Br1       1.0  0.23942289027131186  0.23942288370224174  0.7605771175443037  1.0000
  Br  Br2       1.0  0.7605771517817352  0.7605771150750956  0.23942285903022556  1.0000
  Br  Br3       1.0  0.7605770494685153  0.23942295729895707  0.2394229335802428  1.0000
  Br  Br4       1.0  0.23942291629970014  0.7605770786002292  0.7605771416449878  1.0000
  Br  Br5       1.0  0.23942295412426803  0.7605770397526541  0.23942292083871317  1.0000
  Br  Br6       1.0  0.7605770342240188  0.2394229557966953  0.760577051256686  1.0000
