data_image0
_chemical_formula_structural       In2NiBr6
_chemical_formula_sum              "In2 Ni1 Br6"
_cell_length_a       7.3166878358874445
_cell_length_b       7.316687267005158
_cell_length_c       7.316687581463203
_cell_angle_alpha    59.9999969361476
_cell_angle_beta     59.99999807048534
_cell_angle_gamma    59.999998741791316

_space_group_name_H-M_alt    "P 1"
_space_group_IT_number       1

loop_
  _space_group_symop_operation_xyz
  'x, y, z'

loop_
  _atom_site_type_symbol
  _atom_site_label
  _atom_site_symmetry_multiplicity
  _atom_site_fract_x
  _atom_site_fract_y
  _atom_site_fract_z
  _atom_site_occupancy
  In  In1       1.0  0.24999999829112024  0.250000150457993  0.24999999587477217  1.0000
  In  In2       1.0  0.7500000751936575  0.7499999358108327  0.749999900463018  1.0000
  Ni  Ni1       1.0  0.9999999584259306  0.9999999732174965  2.282551817533585e-07  1.0000
  Br  Br1       1.0  0.2363557075740426  0.23635565408532333  0.7636443324035442  1.0000
  Br  Br2       1.0  0.7636443287375377  0.7636443401186529  0.23635570099042202  1.0000
  Br  Br3       1.0  0.7636443918804192  0.23635561360544718  0.23635558829513453  1.0000
  Br  Br4       1.0  0.23635572500016003  0.7636442383164938  0.7636443078464911  1.0000
  Br  Br5       1.0  0.23635560194206462  0.7636443441041809  0.23635560597637928  1.0000
  Br  Br6       1.0  0.7636442312937841  0.23635573379510869  0.763644327199373  1.0000
