data_image0
_chemical_formula_structural       In2NiCl6
_chemical_formula_sum              "In2 Ni1 Cl6"
_cell_length_a       7.040916495573084
_cell_length_b       7.040916095024536
_cell_length_c       7.040915912301664
_cell_angle_alpha    60.00000100319131
_cell_angle_beta     60.00000126567
_cell_angle_gamma    60.00000028399287

_space_group_name_H-M_alt    "P 1"
_space_group_IT_number       1

loop_
  _space_group_symop_operation_xyz
  'x, y, z'

loop_
  _atom_site_type_symbol
  _atom_site_label
  _atom_site_symmetry_multiplicity
  _atom_site_fract_x
  _atom_site_fract_y
  _atom_site_fract_z
  _atom_site_occupancy
  In  In1       1.0  0.24999990537283132  0.2500002492516461  0.2499998738527855  1.0000
  In  In2       1.0  0.7499999615824425  0.7500000015231452  0.7500003022840145  1.0000
  Ni  Ni1       1.0  8.443514686557413e-08  0.999999958252767  0.9999999701344234  1.0000
  Cl  Cl1       1.0  0.23484238226398593  0.2348425211409611  0.7651575299872501  1.0000
  Cl  Cl2       1.0  0.7651577220489384  0.7651573225983033  0.23484240858724803  1.0000
  Cl  Cl3       1.0  0.7651574604997804  0.2348424649062832  0.2348425004383444  1.0000
  Cl  Cl4       1.0  0.23484248486517953  0.7651574866800003  0.7651574920920236  1.0000
  Cl  Cl5       1.0  0.23484252190031252  0.7651574828548557  0.23484244310945962  1.0000
  Cl  Cl6       1.0  0.7651575098211576  0.2348424408999389  0.7651574874921919  1.0000
