data_image0
_chemical_formula_structural       In2NiI6
_chemical_formula_sum              "In2 Ni1 I6"
_cell_length_a       7.719736395802404
_cell_length_b       7.719736339814735
_cell_length_c       7.7197362527451485
_cell_angle_alpha    59.999999617654794
_cell_angle_beta     60.000000609120896
_cell_angle_gamma    59.99999990778909

_space_group_name_H-M_alt    "P 1"
_space_group_IT_number       1

loop_
  _space_group_symop_operation_xyz
  'x, y, z'

loop_
  _atom_site_type_symbol
  _atom_site_label
  _atom_site_symmetry_multiplicity
  _atom_site_fract_x
  _atom_site_fract_y
  _atom_site_fract_z
  _atom_site_occupancy
  In  In1       1.0  0.2499999877124039  0.24999999875326204  0.2500000083931466  1.0000
  In  In2       1.0  0.7500000169851888  0.7499999962597863  0.7499999943693082  1.0000
  Ni  Ni1       1.0  1.6635016875348125e-08  0.9999999904809325  0.9999999873743581  1.0000
  I   I1        1.0  0.24869342490684615  0.2486934088336335  0.7513065787562225  1.0000
  I   I2        1.0  0.7513065496937353  0.7513065956984826  0.2486934252275366  1.0000
  I   I3        1.0  0.7513065551044248  0.24869345131379086  0.24869343133837352  1.0000
  I   I4        1.0  0.24869346075834595  0.7513065595643702  0.7513065501366495  1.0000
  I   I5        1.0  0.2486934366524472  0.7513065511692297  0.24869344814491662  1.0000
  I   I6        1.0  0.7513065500050856  0.24869344860335227  0.7513065806885167  1.0000
