data_image0
_chemical_formula_structural       In2NbI6
_chemical_formula_sum              "In2 Nb1 I6"
_cell_length_a       8.037681857221825
_cell_length_b       8.037681870203912
_cell_length_c       8.0376816398735
_cell_angle_alpha    60.000000568848094
_cell_angle_beta     60.00000009237222
_cell_angle_gamma    59.99999957520575

_space_group_name_H-M_alt    "P 1"
_space_group_IT_number       1

loop_
  _space_group_symop_operation_xyz
  'x, y, z'

loop_
  _atom_site_type_symbol
  _atom_site_label
  _atom_site_symmetry_multiplicity
  _atom_site_fract_x
  _atom_site_fract_y
  _atom_site_fract_z
  _atom_site_occupancy
  In  In1       1.0  0.25000001125828497  0.2499999854338773  0.24999999818584576  1.0000
  In  In2       1.0  0.7499999910674566  0.7500000111567705  0.7500000233195827  1.0000
  Nb  Nb1       1.0  0.9999999878548254  0.9999999588586463  0.9999999196472376  1.0000
  I   I1        1.0  0.24530318857406655  0.24530315684093457  0.7546968313390642  1.0000
  I   I2        1.0  0.7546968529459369  0.7546968687010362  0.24530313494319425  1.0000
  I   I3        1.0  0.7546968311547587  0.24530315739612316  0.2453031610349113  1.0000
  I   I4        1.0  0.2453030945800334  0.7546968879546485  0.7546969092218458  1.0000
  I   I5        1.0  0.24530315198549718  0.7546968703147054  0.24530311841779276  1.0000
  I   I6        1.0  0.7546968967474543  0.24530310341963435  0.7546969025094432  1.0000
