data_image0
_chemical_formula_structural       In2NiF6
_chemical_formula_sum              "In2 Ni1 F6"
_cell_length_a       5.413670476535718
_cell_length_b       5.413670718593038
_cell_length_c       5.413670519191761
_cell_angle_alpha    60.00000004780825
_cell_angle_beta     60.00000001845665
_cell_angle_gamma    60.00000039966562

_space_group_name_H-M_alt    "P 1"
_space_group_IT_number       1

loop_
  _space_group_symop_operation_xyz
  'x, y, z'

loop_
  _atom_site_type_symbol
  _atom_site_label
  _atom_site_symmetry_multiplicity
  _atom_site_fract_x
  _atom_site_fract_y
  _atom_site_fract_z
  _atom_site_occupancy
  In  In1       1.0  0.2500000359859549  0.2500000702510648  0.24999984182990428  1.0000
  In  In2       1.0  0.7500000428535725  0.7499999709474057  0.7499999476323906  1.0000
  Ni  Ni1       1.0  0.9999999651189392  2.2623188205425658e-09  2.0003722055803198e-08  1.0000
  F   F1        1.0  0.24693326521473039  0.24693325252148024  0.7530667710194375  1.0000
  F   F2        1.0  0.7530667544423627  0.7530667230697445  0.2469332784854854  1.0000
  F   F3        1.0  0.7530667659006633  0.24693323820558657  0.2469332703796389  1.0000
  F   F4        1.0  0.2469332242834965  0.7530667170247699  0.7530667911119556  1.0000
  F   F5        1.0  0.2469332053611176  0.7530667695215243  0.24693327944612514  1.0000
  F   F6        1.0  0.7530667325753396  0.24693327846390006  0.753066771027664  1.0000
