data_image0
_chemical_formula_structural       In2NbCl6
_chemical_formula_sum              "In2 Nb1 Cl6"
_cell_length_a       7.227244905264796
_cell_length_b       7.227245044961427
_cell_length_c       7.227245024851842
_cell_angle_alpha    59.99999939128641
_cell_angle_beta     60.000000534033894
_cell_angle_gamma    59.99999917129547

_space_group_name_H-M_alt    "P 1"
_space_group_IT_number       1

loop_
  _space_group_symop_operation_xyz
  'x, y, z'

loop_
  _atom_site_type_symbol
  _atom_site_label
  _atom_site_symmetry_multiplicity
  _atom_site_fract_x
  _atom_site_fract_y
  _atom_site_fract_z
  _atom_site_occupancy
  In  In1       1.0  0.25000000369198344  0.25000000923995835  0.2500000326598197  1.0000
  In  In2       1.0  0.7500000251175103  0.7499999616296169  0.7499999538144771  1.0000
  Nb  Nb1       1.0  0.9999999781970036  0.9999999983053784  0.9999999882267061  1.0000
  Cl  Cl1       1.0  0.23604749766355582  0.23604744286696988  0.7639525311260942  1.0000
  Cl  Cl2       1.0  0.7639525022570738  0.7639525907036213  0.23604743982577897  1.0000
  Cl  Cl3       1.0  0.7639525647153729  0.23604744215317797  0.23604740990184908  1.0000
  Cl  Cl4       1.0  0.23604746030058002  0.7639525880281689  0.7639525681844753  1.0000
  Cl  Cl5       1.0  0.23604747539713425  0.7639525350672383  0.23604745633991778  1.0000
  Cl  Cl6       1.0  0.7639525038835053  0.2360474358023366  0.7639526171631953  1.0000
