data_image0
_chemical_formula_structural       In2NbF6
_chemical_formula_sum              "In2 Nb1 F6"
_cell_length_a       6.173450072645489
_cell_length_b       6.173450324047393
_cell_length_c       6.17345012953798
_cell_angle_alpha    60.00000114480105
_cell_angle_beta     60.000001902627766
_cell_angle_gamma    60.00000100334103

_space_group_name_H-M_alt    "P 1"
_space_group_IT_number       1

loop_
  _space_group_symop_operation_xyz
  'x, y, z'

loop_
  _atom_site_type_symbol
  _atom_site_label
  _atom_site_symmetry_multiplicity
  _atom_site_fract_x
  _atom_site_fract_y
  _atom_site_fract_z
  _atom_site_occupancy
  In  In1       1.0  0.249999929686704  0.2500000746537137  0.2499999609257951  1.0000
  In  In2       1.0  0.749999993073234  0.7499999878781867  0.7500000672756403  1.0000
  Nb  Nb1       1.0  1.3300462592755882e-08  2.1822794040593373e-08  0.9999999500415766  1.0000
  F   F1        1.0  0.22804112030824342  0.22804113680336255  0.7719588771200178  1.0000
  F   F2        1.0  0.7719588747566274  0.7719588939862918  0.22804111622151726  1.0000
  F   F3        1.0  0.771958865096876  0.2280411313367746  0.22804112567459003  1.0000
  F   F4        1.0  0.22804113737518691  0.7719588379522788  0.771958899573169  1.0000
  F   F5        1.0  0.22804117842457877  0.7719588636798806  0.22804112172379684  1.0000
  F   F6        1.0  0.7719588973346292  0.22804108775415904  0.7719588741880579  1.0000
