data_image0
_chemical_formula_structural       In2NbCl6
_chemical_formula_sum              "In2 Nb1 Cl6"
_cell_length_a       7.231251205032013
_cell_length_b       7.231251231495479
_cell_length_c       7.231251133083829
_cell_angle_alpha    60.00000144930757
_cell_angle_beta     60.00000080384452
_cell_angle_gamma    60.000000519100105

_space_group_name_H-M_alt    "P 1"
_space_group_IT_number       1

loop_
  _space_group_symop_operation_xyz
  'x, y, z'

loop_
  _atom_site_type_symbol
  _atom_site_label
  _atom_site_symmetry_multiplicity
  _atom_site_fract_x
  _atom_site_fract_y
  _atom_site_fract_z
  _atom_site_occupancy
  In  In1       1.0  0.2499999762745491  0.250000007394588  0.2500000238742446  1.0000
  In  In2       1.0  0.7500000329241453  0.7499999781480007  0.750000020847068  1.0000
  Nb  Nb1       1.0  3.166242520044413e-08  0.999999986450532  0.999999737875281  1.0000
  Cl  Cl1       1.0  0.23593943918239849  0.23593936107038072  0.7640605453768091  1.0000
  Cl  Cl2       1.0  0.7640605786452002  0.7640606464900879  0.23593934296668242  1.0000
  Cl  Cl3       1.0  0.7640605293273512  0.23593943745492765  0.2359394197305724  1.0000
  Cl  Cl4       1.0  0.23593924810265168  0.7640607835096245  0.7640607420923492  1.0000
  Cl  Cl5       1.0  0.23593946728085055  0.7640605447470666  0.235939414412548  1.0000
  Cl  Cl6       1.0  0.7640607020869953  0.23593924771564043  0.7640607518635073  1.0000
