data_image0
_chemical_formula_structural       In2NbBr6
_chemical_formula_sum              "In2 Nb1 Br6"
_cell_length_a       7.5867823879001755
_cell_length_b       7.586782241585729
_cell_length_c       7.586782424460582
_cell_angle_alpha    59.99999836768514
_cell_angle_beta     59.99999905698585
_cell_angle_gamma    60.000001062784406

_space_group_name_H-M_alt    "P 1"
_space_group_IT_number       1

loop_
  _space_group_symop_operation_xyz
  'x, y, z'

loop_
  _atom_site_type_symbol
  _atom_site_label
  _atom_site_symmetry_multiplicity
  _atom_site_fract_x
  _atom_site_fract_y
  _atom_site_fract_z
  _atom_site_occupancy
  In  In1       1.0  0.24999999292329433  0.250000006109284  0.24999999713169094  1.0000
  In  In2       1.0  0.7499999963268473  0.7500000021847123  0.7500000104593878  1.0000
  Nb  Nb1       1.0  1.955641372960611e-08  0.9999999321988111  1.941549429208256e-07  1.0000
  Br  Br1       1.0  0.2395185001776806  0.23951848934317563  0.760481541264248  1.0000
  Br  Br2       1.0  0.7604815032319896  0.7604814947361106  0.23951850826071258  1.0000
  Br  Br3       1.0  0.7604814616513761  0.23951854853246562  0.23951853655970962  1.0000
  Br  Br4       1.0  0.2395186079582887  0.7604813693599489  0.7604813785143437  1.0000
  Br  Br5       1.0  0.2395185413897762  0.7604815083507358  0.23951848889950936  1.0000
  Br  Br6       1.0  0.7604813663929549  0.23951864846014786  0.7604813507224846  1.0000
