data_image0
_chemical_formula_structural       In2NbI6
_chemical_formula_sum              "In2 Nb1 I6"
_cell_length_a       8.038340001063764
_cell_length_b       8.038340015853606
_cell_length_c       8.038340069850173
_cell_angle_alpha    60.00000005656648
_cell_angle_beta     59.999999744568214
_cell_angle_gamma    60.000000314577136

_space_group_name_H-M_alt    "P 1"
_space_group_IT_number       1

loop_
  _space_group_symop_operation_xyz
  'x, y, z'

loop_
  _atom_site_type_symbol
  _atom_site_label
  _atom_site_symmetry_multiplicity
  _atom_site_fract_x
  _atom_site_fract_y
  _atom_site_fract_z
  _atom_site_occupancy
  In  In1       1.0  0.24999999920368254  0.250000002582795  0.24999999534088407  1.0000
  In  In2       1.0  0.7499999997296908  0.7499999970829813  0.7500000039804499  1.0000
  Nb  Nb1       1.0  4.437190475763151e-08  0.9999999832400802  1.729495590203675e-08  1.0000
  I   I1        1.0  0.24525330378427285  0.24525331440493778  0.7547466902479396  1.0000
  I   I2        1.0  0.7547466580617403  0.7547466715481765  0.24525334193763285  1.0000
  I   I3        1.0  0.7547466927345807  0.24525331230289818  0.24525332259126914  1.0000
  I   I4        1.0  0.24525331532561664  0.7547466858392491  0.7547466654642395  1.0000
  I   I5        1.0  0.2452533112189302  0.7547466934241057  0.24525332624355986  1.0000
  I   I6        1.0  0.7547466713030744  0.2452533382378813  0.7547466428926702  1.0000
