data_image0
_chemical_formula_structural       In2NbF6
_chemical_formula_sum              "In2 Nb1 F6"
_cell_length_a       6.172460179055693
_cell_length_b       6.1724594638938
_cell_length_c       6.172460031899843
_cell_angle_alpha    60.0000008440674
_cell_angle_beta     59.999998964484746
_cell_angle_gamma    59.99999972753376

_space_group_name_H-M_alt    "P 1"
_space_group_IT_number       1

loop_
  _space_group_symop_operation_xyz
  'x, y, z'

loop_
  _atom_site_type_symbol
  _atom_site_label
  _atom_site_symmetry_multiplicity
  _atom_site_fract_x
  _atom_site_fract_y
  _atom_site_fract_z
  _atom_site_occupancy
  In  In1       1.0  0.25000000851094833  0.25000001671096095  0.2500000113860477  1.0000
  In  In2       1.0  0.7499999502886789  0.7500000064802841  0.7500000352829397  1.0000
  Nb  Nb1       1.0  5.385230084163376e-09  1.1905255496370452e-08  3.6717546155146974e-08  1.0000
  F   F1        1.0  0.2280873498652146  0.22808729847431058  0.7719127033817835  1.0000
  F   F2        1.0  0.771912638451117  0.7719126810643386  0.22808731795315612  1.0000
  F   F3        1.0  0.7719126402117378  0.22808735869048602  0.22808730487463555  1.0000
  F   F4        1.0  0.22808736505464375  0.7719126148955331  0.7719126348169127  1.0000
  F   F5        1.0  0.2280873621238111  0.7719126705134791  0.2280872969035686  1.0000
  F   F6        1.0  0.7719126666871745  0.2280873110093786  0.7719126837507441  1.0000
