data_image0
_chemical_formula_structural       In2NiBr6
_chemical_formula_sum              "In2 Ni1 Br6"
_cell_length_a       7.3130539734148465
_cell_length_b       7.313054132668305
_cell_length_c       7.313053764999397
_cell_angle_alpha    60.000000202084784
_cell_angle_beta     60.00000096433214
_cell_angle_gamma    59.99999853557471

_space_group_name_H-M_alt    "P 1"
_space_group_IT_number       1

loop_
  _space_group_symop_operation_xyz
  'x, y, z'

loop_
  _atom_site_type_symbol
  _atom_site_label
  _atom_site_symmetry_multiplicity
  _atom_site_fract_x
  _atom_site_fract_y
  _atom_site_fract_z
  _atom_site_occupancy
  In  In1       1.0  0.24999999939666046  0.24999995766848754  0.25000005122401336  1.0000
  In  In2       1.0  0.750000003227806  0.7499999952613298  0.7499999710598431  1.0000
  Ni  Ni1       1.0  1.6027619103893575e-08  7.033899027016976e-08  0.9999999718582905  1.0000
  Br  Br1       1.0  0.2363911122532316  0.2363911217777075  0.763608923486691  1.0000
  Br  Br2       1.0  0.7636088474684619  0.763608817754207  0.23639116797003787  1.0000
  Br  Br3       1.0  0.7636089401996622  0.2363911337925317  0.23639109793539936  1.0000
  Br  Br4       1.0  0.23639112964954007  0.7636088543067802  0.7636088198220466  1.0000
  Br  Br5       1.0  0.23639106436000154  0.7636088982513317  0.23639113951393492  1.0000
  Br  Br6       1.0  0.7636089064444428  0.23639115013854567  0.7636088318060522  1.0000
