data_image0
_chemical_formula_structural       In2NiI6
_chemical_formula_sum              "In2 Ni1 I6"
_cell_length_a       7.718525925799447
_cell_length_b       7.718525739943024
_cell_length_c       7.718525681654098
_cell_angle_alpha    59.9999999141663
_cell_angle_beta     59.99999957656615
_cell_angle_gamma    59.99999958110785

_space_group_name_H-M_alt    "P 1"
_space_group_IT_number       1

loop_
  _space_group_symop_operation_xyz
  'x, y, z'

loop_
  _atom_site_type_symbol
  _atom_site_label
  _atom_site_symmetry_multiplicity
  _atom_site_fract_x
  _atom_site_fract_y
  _atom_site_fract_z
  _atom_site_occupancy
  In  In1       1.0  0.2499999942925971  0.24999998618492533  0.24999999846945234  1.0000
  In  In2       1.0  0.7500000235112126  0.7499999982237788  0.7499999876467498  1.0000
  Ni  Ni1       1.0  0.9999999966294134  4.601604312873959e-08  0.9999999462876664  1.0000
  I   I1        1.0  0.24877140789649071  0.24877146819142226  0.7512285661208797  1.0000
  I   I2        1.0  0.7512285833265311  0.7512285241510823  0.24877144486582692  1.0000
  I   I3        1.0  0.7512285648373812  0.248771412744382  0.24877146564095495  1.0000
  I   I4        1.0  0.24877142788165188  0.7512285795981227  0.7512285549624197  1.0000
  I   I5        1.0  0.24877141361421257  0.7512285818928581  0.24877145450705457  1.0000
  I   I6        1.0  0.7512285867663757  0.24877140092908592  0.75122858775517  1.0000
