data_image0
_chemical_formula_structural       In2OsF6
_chemical_formula_sum              "In2 Os1 F6"
_cell_length_a       6.134461245324271
_cell_length_b       6.134461053762415
_cell_length_c       6.13446102222582
_cell_angle_alpha    60.00000194633992
_cell_angle_beta     60.00000078407499
_cell_angle_gamma    60.00000066305699

_space_group_name_H-M_alt    "P 1"
_space_group_IT_number       1

loop_
  _space_group_symop_operation_xyz
  'x, y, z'

loop_
  _atom_site_type_symbol
  _atom_site_label
  _atom_site_symmetry_multiplicity
  _atom_site_fract_x
  _atom_site_fract_y
  _atom_site_fract_z
  _atom_site_occupancy
  In  In1       1.0  0.2500000414784449  0.24999998293961007  0.24999996246172332  1.0000
  In  In2       1.0  0.7499999028143851  0.750000054633306  0.750000025165027  1.0000
  Os  Os1       1.0  7.757634625942563e-09  0.9999999880210028  0.9999999923298708  1.0000
  F   F1        1.0  0.22918394318685328  0.229183894912778  0.7708160829382833  1.0000
  F   F2        1.0  0.770816070105824  0.7708161107161469  0.2291839301741849  1.0000
  F   F3        1.0  0.7708160976754125  0.22918389548508747  0.2291839346069189  1.0000
  F   F4        1.0  0.22918394588771202  0.7708160362733554  0.7708160888946202  1.0000
  F   F5        1.0  0.2291839448502236  0.7708161083623352  0.22918388585460134  1.0000
  F   F6        1.0  0.7708160425075508  0.2291839411895788  0.7708161117432842  1.0000
