data_image0
_chemical_formula_structural       In2OsBr6
_chemical_formula_sum              "In2 Os1 Br6"
_cell_length_a       7.472441161747365
_cell_length_b       7.472441143019619
_cell_length_c       7.47244113735079
_cell_angle_alpha    60.00000023695188
_cell_angle_beta     60.00000027709838
_cell_angle_gamma    59.99999857821092

_space_group_name_H-M_alt    "P 1"
_space_group_IT_number       1

loop_
  _space_group_symop_operation_xyz
  'x, y, z'

loop_
  _atom_site_type_symbol
  _atom_site_label
  _atom_site_symmetry_multiplicity
  _atom_site_fract_x
  _atom_site_fract_y
  _atom_site_fract_z
  _atom_site_occupancy
  In  In1       1.0  0.24999997258175283  0.2500000202198089  0.24999999914324655  1.0000
  In  In2       1.0  0.7500000020500335  0.749999988542732  0.7500000274684698  1.0000
  Os  Os1       1.0  2.753702534264487e-07  9.1784877361611e-08  0.9999997669071571  1.0000
  Br  Br1       1.0  0.23663878644301248  0.2366388206281227  0.7633611787647498  1.0000
  Br  Br2       1.0  0.7633610251257889  0.763361014398751  0.2366389854665248  1.0000
  Br  Br3       1.0  0.7633610766231151  0.2366389207527101  0.23663888262850213  1.0000
  Br  Br4       1.0  0.23663879887509992  0.7633611814337306  0.7633611816325696  1.0000
  Br  Br5       1.0  0.23663887332017985  0.7633611083885956  0.23663883977871308  1.0000
  Br  Br6       1.0  0.7633612017868995  0.23663884464740775  0.763361145723115  1.0000
