data_image0
_chemical_formula_structural       In2OsCl6
_chemical_formula_sum              "In2 Os1 Cl6"
_cell_length_a       7.125101053092755
_cell_length_b       7.1251009034546104
_cell_length_c       7.1251008079646425
_cell_angle_alpha    60.00000170966469
_cell_angle_beta     60.000001198712624
_cell_angle_gamma    59.9999991975762

_space_group_name_H-M_alt    "P 1"
_space_group_IT_number       1

loop_
  _space_group_symop_operation_xyz
  'x, y, z'

loop_
  _atom_site_type_symbol
  _atom_site_label
  _atom_site_symmetry_multiplicity
  _atom_site_fract_x
  _atom_site_fract_y
  _atom_site_fract_z
  _atom_site_occupancy
  In  In1       1.0  0.24999997810383526  0.24999999668487086  0.24999999490506314  1.0000
  In  In2       1.0  0.7499999827977445  0.7500000536544975  0.7499999848116847  1.0000
  Os  Os1       1.0  2.3278369988526188e-08  0.9999999690595154  3.3304324217641346e-08  1.0000
  Cl  Cl1       1.0  0.23358866519291874  0.23358863125968202  0.766411315104261  1.0000
  Cl  Cl2       1.0  0.7664113736299507  0.7664113554797995  0.2335886209610732  1.0000
  Cl  Cl3       1.0  0.7664114290063814  0.23358855305870677  0.2335885095804866  1.0000
  Cl  Cl4       1.0  0.2335885403914711  0.7664114766536725  0.766411529534198  1.0000
  Cl  Cl5       1.0  0.23358861134534775  0.7664114038080656  0.23358848385646172  1.0000
  Cl  Cl6       1.0  0.7664114148075665  0.2335885674611745  0.7664115013661934  1.0000
