data_image0
_chemical_formula_structural       In2OsI6
_chemical_formula_sum              "In2 Os1 I6"
_cell_length_a       7.828495753353573
_cell_length_b       7.828495764685705
_cell_length_c       7.8284956428114345
_cell_angle_alpha    59.99999992991938
_cell_angle_beta     60.00000038300602
_cell_angle_gamma    59.999998873299035

_space_group_name_H-M_alt    "P 1"
_space_group_IT_number       1

loop_
  _space_group_symop_operation_xyz
  'x, y, z'

loop_
  _atom_site_type_symbol
  _atom_site_label
  _atom_site_symmetry_multiplicity
  _atom_site_fract_x
  _atom_site_fract_y
  _atom_site_fract_z
  _atom_site_occupancy
  In  In1       1.0  0.25000000064639416  0.2500000126577667  0.25000000212313345  1.0000
  In  In2       1.0  0.7499999873988662  0.7499999753944901  0.7500000436515791  1.0000
  Os  Os1       1.0  2.6281519682274493e-08  1.4080232099906996e-08  0.9999999581035853  1.0000
  I   I1        1.0  0.24466715960672772  0.24466718416154207  0.755332826519407  1.0000
  I   I2        1.0  0.7553328076096317  0.755332813277537  0.24466718410003693  1.0000
  I   I3        1.0  0.7553328606923183  0.2446671445277444  0.2446671369988251  1.0000
  I   I4        1.0  0.24466714955201457  0.7553328654270961  0.7553328445713667  1.0000
  I   I5        1.0  0.24466714423179736  0.7553328561360284  0.24466714771059572  1.0000
  I   I6        1.0  0.7553328617664927  0.24466714443199053  0.7553328547272591  1.0000
