data_image0
_chemical_formula_structural       In2PtI6
_chemical_formula_sum              "In2 Pt1 I6"
_cell_length_a       7.79674893810893
_cell_length_b       7.796748717948525
_cell_length_c       7.796748866216655
_cell_angle_alpha    60.000000070681644
_cell_angle_beta     59.999999140305924
_cell_angle_gamma    59.99999820743467

_space_group_name_H-M_alt    "P 1"
_space_group_IT_number       1

loop_
  _space_group_symop_operation_xyz
  'x, y, z'

loop_
  _atom_site_type_symbol
  _atom_site_label
  _atom_site_symmetry_multiplicity
  _atom_site_fract_x
  _atom_site_fract_y
  _atom_site_fract_z
  _atom_site_occupancy
  In  In1       1.0  0.24999997989315684  0.2500000203569838  0.25000002681465183  1.0000
  In  In2       1.0  0.7499999868328701  0.7500000217999369  0.7500000021127812  1.0000
  Pt  Pt1       1.0  4.523861942909485e-08  0.9999999575873059  3.9629784843985523e-08  1.0000
  I   I1        1.0  0.24661122826085877  0.24661120519711704  0.7533887854548406  1.0000
  I   I2        1.0  0.7533887651540444  0.7533887835512252  0.2466112068115939  1.0000
  I   I3        1.0  0.7533888219731667  0.24661118093939374  0.2466111923050704  1.0000
  I   I4        1.0  0.246611176826719  0.7533888360840778  0.7533887869790656  1.0000
  I   I5        1.0  0.24661119915979288  0.7533888047001974  0.2466112015373681  1.0000
  I   I6        1.0  0.7533887940754346  0.2466111934731877  0.7533887681501804  1.0000
