data_image0
_chemical_formula_structural       In2PdI6
_chemical_formula_sum              "In2 Pd1 I6"
_cell_length_a       7.765759277354354
_cell_length_b       7.765759331243461
_cell_length_c       7.765759306783221
_cell_angle_alpha    59.99999960347537
_cell_angle_beta     60.000001324432546
_cell_angle_gamma    59.99999977799746

_space_group_name_H-M_alt    "P 1"
_space_group_IT_number       1

loop_
  _space_group_symop_operation_xyz
  'x, y, z'

loop_
  _atom_site_type_symbol
  _atom_site_label
  _atom_site_symmetry_multiplicity
  _atom_site_fract_x
  _atom_site_fract_y
  _atom_site_fract_z
  _atom_site_occupancy
  In  In1       1.0  0.2499999677696598  0.2500000068067867  0.24999999475263013  1.0000
  In  In2       1.0  0.7499999997933807  0.7500000030721606  0.7499999562791272  1.0000
  Pd  Pd1       1.0  0.9999999230541544  1.1039762640015746e-07  2.2278706856559548e-07  1.0000
  I   I1        1.0  0.24930205453681653  0.24930204692087357  0.7506979643505699  1.0000
  I   I2        1.0  0.7506979231047795  0.7506979282616749  0.24930210200643643  1.0000
  I   I3        1.0  0.7506980495479837  0.24930200036206995  0.24930195527327062  1.0000
  I   I4        1.0  0.24930217265602486  0.7506978076469282  0.7506978431779804  1.0000
  I   I5        1.0  0.24930194768143535  0.7506979788362689  0.24930208555292763  1.0000
  I   I6        1.0  0.7506979617553917  0.24930211620656356  0.7506978790017789  1.0000
