data_image0
_chemical_formula_structural       In2PtBr6
_chemical_formula_sum              "In2 Pt1 Br6"
_cell_length_a       7.413508007439082
_cell_length_b       7.413508158939383
_cell_length_c       7.413508053977444
_cell_angle_alpha    59.99999944399104
_cell_angle_beta     59.999999641179194
_cell_angle_gamma    60.00000160557387

_space_group_name_H-M_alt    "P 1"
_space_group_IT_number       1

loop_
  _space_group_symop_operation_xyz
  'x, y, z'

loop_
  _atom_site_type_symbol
  _atom_site_label
  _atom_site_symmetry_multiplicity
  _atom_site_fract_x
  _atom_site_fract_y
  _atom_site_fract_z
  _atom_site_occupancy
  In  In1       1.0  0.24999997853125586  0.24999997419812728  0.2500000258671656  1.0000
  In  In2       1.0  0.750000022485217  0.75000002171708  0.7499999791988655  1.0000
  Pt  Pt1       1.0  0.9999999859036615  0.9999999768713703  3.7496931310945864e-08  1.0000
  Br  Br1       1.0  0.2383726958227314  0.23837268285252916  0.7616273255437133  1.0000
  Br  Br2       1.0  0.7616273486948122  0.761627346103578  0.23837265608911234  1.0000
  Br  Br3       1.0  0.7616272777594703  0.238372687003665  0.23837272997179518  1.0000
  Br  Br4       1.0  0.2383727305103455  0.7616272824788237  0.7616272671483664  1.0000
  Br  Br5       1.0  0.23837268803461906  0.7616273328613831  0.2383726795678656  1.0000
  Br  Br6       1.0  0.761627275945851  0.2383726993988127  0.761627294819224  1.0000
