data_image0
_chemical_formula_structural       In2PdF6
_chemical_formula_sum              "In2 Pd1 F6"
_cell_length_a       5.746976382829928
_cell_length_b       5.746976345389939
_cell_length_c       5.746976562228958
_cell_angle_alpha    59.99999800931831
_cell_angle_beta     59.99999740247212
_cell_angle_gamma    59.99999915859535

_space_group_name_H-M_alt    "P 1"
_space_group_IT_number       1

loop_
  _space_group_symop_operation_xyz
  'x, y, z'

loop_
  _atom_site_type_symbol
  _atom_site_label
  _atom_site_symmetry_multiplicity
  _atom_site_fract_x
  _atom_site_fract_y
  _atom_site_fract_z
  _atom_site_occupancy
  In  In1       1.0  0.24999996676658667  0.2499999743631246  0.250000047502166  1.0000
  In  In2       1.0  0.7500000228001454  0.7500000317760751  0.7499999990722265  1.0000
  Pd  Pd1       1.0  0.9999999781422149  0.9999999872133293  3.4018652517776278e-09  1.0000
  F   F1        1.0  0.24784623362755165  0.24784622465537923  0.7521537400479195  1.0000
  F   F2        1.0  0.7521537924500779  0.7521537985327151  0.24784617534385386  1.0000
  F   F3        1.0  0.7521537785347595  0.24784619729124324  0.24784623772348466  1.0000
  F   F4        1.0  0.24784619353738035  0.7521538131101798  0.7521537945865479  1.0000
  F   F5        1.0  0.24784619721405432  0.7521537355220156  0.24784623978209305  1.0000
  F   F6        1.0  0.7521538280731451  0.24784622373272544  0.7521537914937504  1.0000
