data_image0
_chemical_formula_structural       In2PI6
_chemical_formula_sum              "In2 P1 I6"
_cell_length_a       7.874981167528457
_cell_length_b       7.874981045313219
_cell_length_c       7.874981356564453
_cell_angle_alpha    59.99999863075
_cell_angle_beta     59.999999517894636
_cell_angle_gamma    60.000000670323736

_space_group_name_H-M_alt    "P 1"
_space_group_IT_number       1

loop_
  _space_group_symop_operation_xyz
  'x, y, z'

loop_
  _atom_site_type_symbol
  _atom_site_label
  _atom_site_symmetry_multiplicity
  _atom_site_fract_x
  _atom_site_fract_y
  _atom_site_fract_z
  _atom_site_occupancy
  In  In1       1.0  0.2499999890227514  0.25000001197752136  0.2500000001906332  1.0000
  In  In2       1.0  0.749999997105615  0.7499999986069164  0.750000013104953  1.0000
  P   P1        1.0  0.9999999817387395  0.9999999580086454  4.409459458378903e-08  1.0000
  I   I1        1.0  0.2502948558938893  0.2502947794635917  0.7497051794211843  1.0000
  I   I2        1.0  0.7497052247733332  0.7497052202342005  0.2502947844292312  1.0000
  I   I3        1.0  0.7497051437882565  0.25029483927952006  0.25029486955468994  1.0000
  I   I4        1.0  0.2502948413032866  0.7497051744153883  0.7497051528628267  1.0000
  I   I5        1.0  0.2502948128493918  0.7497051846854192  0.2502948139262334  1.0000
  I   I6        1.0  0.7497051520546135  0.25029483678566544  0.7497051410459958  1.0000
