data_image0
_chemical_formula_structural       In2PdCl6
_chemical_formula_sum              "In2 Pd1 Cl6"
_cell_length_a       7.090315123063293
_cell_length_b       7.090315551722485
_cell_length_c       7.090315755329856
_cell_angle_alpha    59.99999692473823
_cell_angle_beta     59.99999496540448
_cell_angle_gamma    59.99999662077807

_space_group_name_H-M_alt    "P 1"
_space_group_IT_number       1

loop_
  _space_group_symop_operation_xyz
  'x, y, z'

loop_
  _atom_site_type_symbol
  _atom_site_label
  _atom_site_symmetry_multiplicity
  _atom_site_fract_x
  _atom_site_fract_y
  _atom_site_fract_z
  _atom_site_occupancy
  In  In1       1.0  0.25000001257000876  0.2499999602847941  0.2500000115889667  1.0000
  In  In2       1.0  0.7500000631912085  0.7499998825817303  0.7500000352663787  1.0000
  Pd  Pd1       1.0  2.9102465517682477e-08  0.999999868721479  1.0609263198472382e-07  1.0000
  Cl  Cl1       1.0  0.23602232122455813  0.23602237441069895  0.7639776481520617  1.0000
  Cl  Cl2       1.0  0.7639777125863384  0.7639776187351847  0.23602232056239736  1.0000
  Cl  Cl3       1.0  0.7639776448269289  0.236022523895305  0.236022180070708  1.0000
  Cl  Cl4       1.0  0.2360222558173184  0.7639776488948721  0.763977744249312  1.0000
  Cl  Cl5       1.0  0.23602222533046074  0.7639776954576144  0.23602226579581354  1.0000
  Cl  Cl6       1.0  0.76397774364843  0.23602242378474284  0.7639777117768947  1.0000
