data_image0
_chemical_formula_structural       In2PdBr6
_chemical_formula_sum              "In2 Pd1 Br6"
_cell_length_a       7.3874624358749665
_cell_length_b       7.387462611214648
_cell_length_c       7.38746274482295
_cell_angle_alpha    59.99999958317764
_cell_angle_beta     59.99999953252223
_cell_angle_gamma    60.00000022049046

_space_group_name_H-M_alt    "P 1"
_space_group_IT_number       1

loop_
  _space_group_symop_operation_xyz
  'x, y, z'

loop_
  _atom_site_type_symbol
  _atom_site_label
  _atom_site_symmetry_multiplicity
  _atom_site_fract_x
  _atom_site_fract_y
  _atom_site_fract_z
  _atom_site_occupancy
  In  In1       1.0  0.2499999821076268  0.2500000294908208  0.24999998241127755  1.0000
  In  In2       1.0  0.7500000112777137  0.7500000155262058  0.7500000256800049  1.0000
  Pd  Pd1       1.0  1.5646810037175618e-08  0.9999999718162191  0.9999998966232625  1.0000
  Br  Br1       1.0  0.24110971845174073  0.2411097733755806  0.7588902797987336  1.0000
  Br  Br2       1.0  0.758890274397244  0.7588902451155344  0.24110975942106402  1.0000
  Br  Br3       1.0  0.758890262377909  0.24110972135785094  0.24110978971267802  1.0000
  Br  Br4       1.0  0.24110965534965093  0.7588903021068722  0.7588902723982248  1.0000
  Br  Br5       1.0  0.24110973539705702  0.7588902680186358  0.24110977293764907  1.0000
  Br  Br6       1.0  0.7588903321480789  0.24110968581557005  0.7588902084703836  1.0000
