data_image0
_chemical_formula_structural       In2PdCl6
_chemical_formula_sum              "In2 Pd1 Cl6"
_cell_length_a       7.090642676960494
_cell_length_b       7.090642467788401
_cell_length_c       7.090642412594542
_cell_angle_alpha    60.00000010691265
_cell_angle_beta     60.00000067848159
_cell_angle_gamma    59.99999993241022

_space_group_name_H-M_alt    "P 1"
_space_group_IT_number       1

loop_
  _space_group_symop_operation_xyz
  'x, y, z'

loop_
  _atom_site_type_symbol
  _atom_site_label
  _atom_site_symmetry_multiplicity
  _atom_site_fract_x
  _atom_site_fract_y
  _atom_site_fract_z
  _atom_site_occupancy
  In  In1       1.0  0.24999998865784923  0.2500000113725747  0.25000000058446176  1.0000
  In  In2       1.0  0.7499999364293513  0.7500001032084941  0.7499999692873135  1.0000
  Pd  Pd1       1.0  4.581209771094847e-08  0.9999999602728072  0.9999999899060001  1.0000
  Cl  Cl1       1.0  0.23602346500655386  0.2360233528851459  0.7639765795577518  1.0000
  Cl  Cl2       1.0  0.7639765338084558  0.7639766528779601  0.2360233993972434  1.0000
  Cl  Cl3       1.0  0.7639766306690755  0.23602333357402708  0.23602339794765134  1.0000
  Cl  Cl4       1.0  0.23602340869438831  0.76397662382554  0.7639766709437628  1.0000
  Cl  Cl5       1.0  0.2360234011705606  0.7639766357107165  0.23602333221481317  1.0000
  Cl  Cl6       1.0  0.7639765805213881  0.23602332859792752  0.7639766619258492  1.0000
