data_image0
_chemical_formula_structural       In2PbI6
_chemical_formula_sum              "In2 Pb1 I6"
_cell_length_a       8.17302238841856
_cell_length_b       8.173022274023502
_cell_length_c       8.173022407269409
_cell_angle_alpha    59.99999937251928
_cell_angle_beta     59.99999901919974
_cell_angle_gamma    60.00000029623223

_space_group_name_H-M_alt    "P 1"
_space_group_IT_number       1

loop_
  _space_group_symop_operation_xyz
  'x, y, z'

loop_
  _atom_site_type_symbol
  _atom_site_label
  _atom_site_symmetry_multiplicity
  _atom_site_fract_x
  _atom_site_fract_y
  _atom_site_fract_z
  _atom_site_occupancy
  In  In1       1.0  0.25000000298423714  0.2500000041685709  0.250000002668095  1.0000
  In  In2       1.0  0.7499999971506488  0.7500000140042338  0.7499999678851657  1.0000
  Pb  Pb1       1.0  5.425764439151516e-08  1.948077924280426e-08  1.5155557403597135e-07  1.0000
  I   I1        1.0  0.2699522421664114  0.2699522186057285  0.7300477666992612  1.0000
  I   I2        1.0  0.7300477390607235  0.7300477291365705  0.269952271770342  1.0000
  I   I3        1.0  0.7300477481086223  0.2699522292850262  0.26995224000936435  1.0000
  I   I4        1.0  0.2699523172314771  0.7300477034720594  0.7300476806958077  1.0000
  I   I5        1.0  0.2699522273352224  0.730047790772176  0.2699522200439164  1.0000
  I   I6        1.0  0.7300476783537511  0.26995229033852625  0.7300476940746355  1.0000
