data_image0
_chemical_formula_structural       In2PdI6
_chemical_formula_sum              "In2 Pd1 I6"
_cell_length_a       7.767690158437837
_cell_length_b       7.767690142513048
_cell_length_c       7.76769014351072
_cell_angle_alpha    60.00000031528884
_cell_angle_beta     60.000000212169965
_cell_angle_gamma    60.00000000132129

_space_group_name_H-M_alt    "P 1"
_space_group_IT_number       1

loop_
  _space_group_symop_operation_xyz
  'x, y, z'

loop_
  _atom_site_type_symbol
  _atom_site_label
  _atom_site_symmetry_multiplicity
  _atom_site_fract_x
  _atom_site_fract_y
  _atom_site_fract_z
  _atom_site_occupancy
  In  In1       1.0  0.2499999950392196  0.2499999861582636  0.2500000061976138  1.0000
  In  In2       1.0  0.7500000073848608  0.7500000120831669  0.7499999870919726  1.0000
  Pd  Pd1       1.0  0.9999999705241907  1.2613735767599856e-08  5.477686076885211e-08  1.0000
  I   I1        1.0  0.2491400219742484  0.2491400352305071  0.750859967964953  1.0000
  I   I2        1.0  0.7508600045642727  0.7508599976986963  0.24914001909643857  1.0000
  I   I3        1.0  0.7508600024337846  0.2491399547294496  0.24914000044869386  1.0000
  I   I4        1.0  0.24914002119353632  0.7508599709830015  0.7508599824570097  1.0000
  I   I5        1.0  0.24913998499112983  0.7508600104419628  0.24913999741052134  1.0000
  I   I6        1.0  0.7508599904793571  0.24914002406395777  0.7508599822119287  1.0000
