data_image0
_chemical_formula_structural       In2PF6
_chemical_formula_sum              "In2 P1 F6"
_cell_length_a       6.260941883454274
_cell_length_b       6.260941437362308
_cell_length_c       6.260942524838101
_cell_angle_alpha    60.00000305709909
_cell_angle_beta     60.000001893308294
_cell_angle_gamma    60.00000593319178

_space_group_name_H-M_alt    "P 1"
_space_group_IT_number       1

loop_
  _space_group_symop_operation_xyz
  'x, y, z'

loop_
  _atom_site_type_symbol
  _atom_site_label
  _atom_site_symmetry_multiplicity
  _atom_site_fract_x
  _atom_site_fract_y
  _atom_site_fract_z
  _atom_site_occupancy
  In  In1       1.0  0.249999917401876  0.2500000656913966  0.25000001551210527  1.0000
  In  In2       1.0  0.7500000301184349  0.7500000660110017  0.7499999315842151  1.0000
  P   P1        1.0  1.8634857236577953e-09  0.9999999667451588  2.5278897287917118e-08  1.0000
  F   F1        1.0  0.1854201773144228  0.18542019987838745  0.8145798766870371  1.0000
  F   F2        1.0  0.8145798781465969  0.8145797518566393  0.18542014475549337  1.0000
  F   F3        1.0  0.8145798512279961  0.18542018886100314  0.18542016929542807  1.0000
  F   F4        1.0  0.1854201891622574  0.814579747224687  0.8145798882707992  1.0000
  F   F5        1.0  0.18542019383886463  0.8145797987189645  0.1854201666770937  1.0000
  F   F6        1.0  0.814579779485627  0.1854201725777269  0.8145798557059979  1.0000
