data_image0
_chemical_formula_structural       In2PbBr6
_chemical_formula_sum              "In2 Pb1 Br6"
_cell_length_a       7.60881645486355
_cell_length_b       7.608816529795283
_cell_length_c       7.608816766448893
_cell_angle_alpha    59.99999916590125
_cell_angle_beta     59.99999838678521
_cell_angle_gamma    60.000000747119124

_space_group_name_H-M_alt    "P 1"
_space_group_IT_number       1

loop_
  _space_group_symop_operation_xyz
  'x, y, z'

loop_
  _atom_site_type_symbol
  _atom_site_label
  _atom_site_symmetry_multiplicity
  _atom_site_fract_x
  _atom_site_fract_y
  _atom_site_fract_z
  _atom_site_occupancy
  In  In1       1.0  0.25000001833887736  0.249999987774689  0.24999999114180868  1.0000
  In  In2       1.0  0.7500000040158478  0.7500000116132397  0.7499999708384375  1.0000
  Pb  Pb1       1.0  0.9999999425949535  0.9999998535228396  1.558259599200216e-07  1.0000
  Br  Br1       1.0  0.26220277213384807  0.2622027667162865  0.7377972217153322  1.0000
  Br  Br2       1.0  0.7377973442478064  0.7377973421271039  0.2622026766373973  1.0000
  Br  Br3       1.0  0.7377971972672664  0.26220277602614767  0.262202797305035  1.0000
  Br  Br4       1.0  0.26220278285552895  0.7377972362388935  0.7377972069521803  1.0000
  Br  Br5       1.0  0.2622027655917681  0.7377972234566422  0.2622027910570022  1.0000
  Br  Br6       1.0  0.7377971737246236  0.26220280651442845  0.7377971879509861  1.0000
