data_image0
_chemical_formula_structural       In2PtBr6
_chemical_formula_sum              "In2 Pt1 Br6"
_cell_length_a       7.408447513242536
_cell_length_b       7.40844748742028
_cell_length_c       7.40844770346716
_cell_angle_alpha    59.9999985245092
_cell_angle_beta     59.999999874481
_cell_angle_gamma    60.000001184295144

_space_group_name_H-M_alt    "P 1"
_space_group_IT_number       1

loop_
  _space_group_symop_operation_xyz
  'x, y, z'

loop_
  _atom_site_type_symbol
  _atom_site_label
  _atom_site_symmetry_multiplicity
  _atom_site_fract_x
  _atom_site_fract_y
  _atom_site_fract_z
  _atom_site_occupancy
  In  In1       1.0  0.2500000101679825  0.25000002346297107  0.24999998065342888  1.0000
  In  In2       1.0  0.7499999914140677  0.7499999678921572  0.7500000060045525  1.0000
  Pt  Pt1       1.0  0.9999999120226318  9.092453543927369e-08  3.899714410100235e-07  1.0000
  Br  Br1       1.0  0.23858407499841325  0.23858404939186748  0.7614159296221424  1.0000
  Br  Br2       1.0  0.761415971216537  0.7614159717203841  0.23858402658987954  1.0000
  Br  Br3       1.0  0.7614159734557797  0.23858399073857595  0.23858403888129087  1.0000
  Br  Br4       1.0  0.23858423013737945  0.7614157873571811  0.7614157603779317  1.0000
  Br  Br5       1.0  0.23858400927189058  0.7614159802766014  0.23858401727623169  1.0000
  Br  Br6       1.0  0.7614158340838095  0.2385841350665345  0.7614158461206345  1.0000
