data_image0
_chemical_formula_structural       In2PdBr6
_chemical_formula_sum              "In2 Pd1 Br6"
_cell_length_a       7.388051140067465
_cell_length_b       7.388051048479675
_cell_length_c       7.388050988660061
_cell_angle_alpha    60.00000075815688
_cell_angle_beta     60.00000078897942
_cell_angle_gamma    60.00000061567766

_space_group_name_H-M_alt    "P 1"
_space_group_IT_number       1

loop_
  _space_group_symop_operation_xyz
  'x, y, z'

loop_
  _atom_site_type_symbol
  _atom_site_label
  _atom_site_symmetry_multiplicity
  _atom_site_fract_x
  _atom_site_fract_y
  _atom_site_fract_z
  _atom_site_occupancy
  In  In1       1.0  0.25000000823766055  0.2500000007803475  0.24999999198052203  1.0000
  In  In2       1.0  0.7499999744148055  0.7500000172606791  0.7499999895702251  1.0000
  Pd  Pd1       1.0  1.89615165997883e-10  0.9999999900535758  4.954512384415208e-08  1.0000
  Br  Br1       1.0  0.24112698242864947  0.24112695553162933  0.7588730147011414  1.0000
  Br  Br2       1.0  0.758873032966801  0.7588730393010734  0.24112695937520154  1.0000
  Br  Br3       1.0  0.7588730500237185  0.24112694939073406  0.2411269050354975  1.0000
  Br  Br4       1.0  0.24112697751220646  0.7588730371532817  0.758873079296784  1.0000
  Br  Br5       1.0  0.2411269499550639  0.7588730477546451  0.2411269182001528  1.0000
  Br  Br6       1.0  0.758873024519789  0.2411269619976944  0.7588730891797246  1.0000
