data_image0
_chemical_formula_structural       In2PtF6
_chemical_formula_sum              "In2 Pt1 F6"
_cell_length_a       6.0446534462559045
_cell_length_b       6.044653543093917
_cell_length_c       6.04465329542171
_cell_angle_alpha    60.00000058192641
_cell_angle_beta     60.000000096451295
_cell_angle_gamma    59.999998172513756

_space_group_name_H-M_alt    "P 1"
_space_group_IT_number       1

loop_
  _space_group_symop_operation_xyz
  'x, y, z'

loop_
  _atom_site_type_symbol
  _atom_site_label
  _atom_site_symmetry_multiplicity
  _atom_site_fract_x
  _atom_site_fract_y
  _atom_site_fract_z
  _atom_site_occupancy
  In  In1       1.0  0.24999987932967502  0.2500001042698085  0.2500000570252232  1.0000
  In  In2       1.0  0.7499999204463844  0.7499999926757862  0.7500000128978673  1.0000
  Pt  Pt1       1.0  0.9999999985532291  0.9999999756860533  7.917295191348292e-09  1.0000
  F   F1        1.0  0.23362497289234116  0.23362491991552214  0.7663750698985846  1.0000
  F   F2        1.0  0.7663751272254884  0.7663750210155722  0.23362495102183456  1.0000
  F   F3        1.0  0.7663750854115949  0.23362496578458797  0.23362490200224806  1.0000
  F   F4        1.0  0.23362497918222042  0.7663750014866166  0.7663750689164215  1.0000
  F   F5        1.0  0.2336249586011309  0.7663750978938245  0.23362492895216821  1.0000
  F   F6        1.0  0.7663751019204775  0.23362491597911178  0.7663749826515829  1.0000
