data_image0
_chemical_formula_structural       In2PtCl6
_chemical_formula_sum              "In2 Pt1 Cl6"
_cell_length_a       7.133259078829577
_cell_length_b       7.13325905055718
_cell_length_c       7.133259143269252
_cell_angle_alpha    59.99999989155948
_cell_angle_beta     59.999999960901704
_cell_angle_gamma    59.99999956241945

_space_group_name_H-M_alt    "P 1"
_space_group_IT_number       1

loop_
  _space_group_symop_operation_xyz
  'x, y, z'

loop_
  _atom_site_type_symbol
  _atom_site_label
  _atom_site_symmetry_multiplicity
  _atom_site_fract_x
  _atom_site_fract_y
  _atom_site_fract_z
  _atom_site_occupancy
  In  In1       1.0  0.2500000464793309  0.24999993310019225  0.2500000293037449  1.0000
  In  In2       1.0  0.7500000276567043  0.7500001152193675  0.7499999451878556  1.0000
  Pt  Pt1       1.0  0.9999998370750764  1.6826109500456768e-07  0.9999998557416567  1.0000
  Cl  Cl1       1.0  0.23365143762160226  0.23365148048404555  0.7663486732922958  1.0000
  Cl  Cl2       1.0  0.7663485418270812  0.7663484682524182  0.23365160861708908  1.0000
  Cl  Cl3       1.0  0.7663485574961938  0.2336514607254142  0.23365142842574174  1.0000
  Cl  Cl4       1.0  0.2336513872712562  0.7663485240669976  0.7663484490537692  1.0000
  Cl  Cl5       1.0  0.23365152531890981  0.7663484505364481  0.2336515381762133  1.0000
  Cl  Cl6       1.0  0.7663486392094615  0.23365138488131784  0.766348463924906  1.0000
