data_image0
_chemical_formula_structural       In2PBr6
_chemical_formula_sum              "In2 P1 Br6"
_cell_length_a       7.494148494795799
_cell_length_b       7.494148367277976
_cell_length_c       7.494148527232665
_cell_angle_alpha    59.99999883669616
_cell_angle_beta     59.99999884337121
_cell_angle_gamma    59.99999900024843

_space_group_name_H-M_alt    "P 1"
_space_group_IT_number       1

loop_
  _space_group_symop_operation_xyz
  'x, y, z'

loop_
  _atom_site_type_symbol
  _atom_site_label
  _atom_site_symmetry_multiplicity
  _atom_site_fract_x
  _atom_site_fract_y
  _atom_site_fract_z
  _atom_site_occupancy
  In  In1       1.0  0.24999999646846774  0.2500000094775919  0.2500000004375816  1.0000
  In  In2       1.0  0.7499999864332993  0.7499999957474102  0.7500000017946121  1.0000
  P   P1        1.0  3.282418775996795e-08  0.9999999754859761  0.9999999451386904  1.0000
  Br  Br1       1.0  0.24068850230745512  0.24068842540334348  0.7593115418449028  1.0000
  Br  Br2       1.0  0.7593114960797696  0.7593116027014145  0.24068846388904924  1.0000
  Br  Br3       1.0  0.7593115312525489  0.24068841627870138  0.24068851005776465  1.0000
  Br  Br4       1.0  0.24068843333047804  0.7593116069232517  0.7593115043546935  1.0000
  Br  Br5       1.0  0.24068847730266557  0.7593115602316582  0.24068849258935449  1.0000
  Br  Br6       1.0  0.759311554827364  0.24068842211358824  0.759311523156074  1.0000
