data_image0
_chemical_formula_structural       In2PtI6
_chemical_formula_sum              "In2 Pt1 I6"
_cell_length_a       7.800255316963218
_cell_length_b       7.800255388435141
_cell_length_c       7.8002553430702735
_cell_angle_alpha    59.999999387556905
_cell_angle_beta     59.999999699572804
_cell_angle_gamma    59.99999973816951

_space_group_name_H-M_alt    "P 1"
_space_group_IT_number       1

loop_
  _space_group_symop_operation_xyz
  'x, y, z'

loop_
  _atom_site_type_symbol
  _atom_site_label
  _atom_site_symmetry_multiplicity
  _atom_site_fract_x
  _atom_site_fract_y
  _atom_site_fract_z
  _atom_site_occupancy
  In  In1       1.0  0.24999999725377933  0.2500000152954795  0.2500000095976359  1.0000
  In  In2       1.0  0.7500000056385613  0.7499999909317374  0.7499999903592184  1.0000
  Pt  Pt1       1.0  4.76938684650826e-09  3.454295622547375e-08  0.9999998700910273  1.0000
  I   I1        1.0  0.2465137193911572  0.24651373977846675  0.753486265604702  1.0000
  I   I2        1.0  0.7534862866414522  0.7534862570279441  0.2465137310823745  1.0000
  I   I3        1.0  0.7534862366328792  0.2465137667035419  0.24651374868621023  1.0000
  I   I4        1.0  0.2465137041597043  0.7534862615055554  0.7534863174819179  1.0000
  I   I5        1.0  0.2465137549376044  0.7534862186635746  0.24651375991503274  1.0000
  I   I6        1.0  0.7534862872670786  0.2465137184777311  0.7534863074909883  1.0000
