data_image0
_chemical_formula_structural       In2PbF6
_chemical_formula_sum              "In2 Pb1 F6"
_cell_length_a       6.096014921290821
_cell_length_b       6.096014990243414
_cell_length_c       6.096014698314051
_cell_angle_alpha    60.00000022447179
_cell_angle_beta     60.0000006489635
_cell_angle_gamma    59.999999964862816

_space_group_name_H-M_alt    "P 1"
_space_group_IT_number       1

loop_
  _space_group_symop_operation_xyz
  'x, y, z'

loop_
  _atom_site_type_symbol
  _atom_site_label
  _atom_site_symmetry_multiplicity
  _atom_site_fract_x
  _atom_site_fract_y
  _atom_site_fract_z
  _atom_site_occupancy
  In  In1       1.0  0.2500001090819521  0.24999997380963834  0.24999995506360706  1.0000
  In  In2       1.0  0.7499999218302354  0.7500000238925558  0.7500000806430356  1.0000
  Pb  Pb1       1.0  0.9999999987755078  0.9999999979909089  1.6380535621841132e-08  1.0000
  F   F1        1.0  0.24616678143268514  0.24616672205769446  0.7538332548006333  1.0000
  F   F2        1.0  0.7538332871137676  0.7538333218535924  0.24616670453559383  1.0000
  F   F3        1.0  0.7538332899571575  0.24616668270295794  0.24616671440875673  1.0000
  F   F4        1.0  0.2461667109172357  0.7538332346355988  0.7538332731523955  1.0000
  F   F5        1.0  0.24616668966735136  0.7538332956297856  0.24616671814936542  1.0000
  F   F6        1.0  0.7538332139894576  0.24616672015422897  0.7538332999657531  1.0000
