data_image0
_chemical_formula_structural       In2PdF6
_chemical_formula_sum              "In2 Pd1 F6"
_cell_length_a       5.752122085904783
_cell_length_b       5.752122139325233
_cell_length_c       5.752122196664897
_cell_angle_alpha    59.999999092037726
_cell_angle_beta     59.9999997759875
_cell_angle_gamma    59.9999991334909

_space_group_name_H-M_alt    "P 1"
_space_group_IT_number       1

loop_
  _space_group_symop_operation_xyz
  'x, y, z'

loop_
  _atom_site_type_symbol
  _atom_site_label
  _atom_site_symmetry_multiplicity
  _atom_site_fract_x
  _atom_site_fract_y
  _atom_site_fract_z
  _atom_site_occupancy
  In  In1       1.0  0.24999997461913268  0.25000002803788274  0.2499999899567237  1.0000
  In  In2       1.0  0.7500000300705356  0.7499999882994101  0.7499999403318791  1.0000
  Pd  Pd1       1.0  0.9999999826637221  0.9999999616743048  5.043134100481794e-08  1.0000
  F   F1        1.0  0.2477579723267012  0.24775803257782222  0.7522420134645149  1.0000
  F   F2        1.0  0.7522419984801326  0.7522419709842383  0.24775805315489305  1.0000
  F   F3        1.0  0.7522420324938544  0.24775795494923794  0.24775796763928926  1.0000
  F   F4        1.0  0.24775798624785225  0.7522420613880546  0.7522419921315592  1.0000
  F   F5        1.0  0.24775795847207024  0.7522420420607748  0.2477579364536004  1.0000
  F   F6        1.0  0.7522420753967234  0.24775795298446449  0.7522420576925296  1.0000
