data_image0
_chemical_formula_structural       In2PtCl6
_chemical_formula_sum              "In2 Pt1 Cl6"
_cell_length_a       7.136599921299718
_cell_length_b       7.1366003571727346
_cell_length_c       7.136600492019193
_cell_angle_alpha    59.999999798201
_cell_angle_beta     59.99999951549082
_cell_angle_gamma    60.000000008797

_space_group_name_H-M_alt    "P 1"
_space_group_IT_number       1

loop_
  _space_group_symop_operation_xyz
  'x, y, z'

loop_
  _atom_site_type_symbol
  _atom_site_label
  _atom_site_symmetry_multiplicity
  _atom_site_fract_x
  _atom_site_fract_y
  _atom_site_fract_z
  _atom_site_occupancy
  In  In1       1.0  0.24999999352511643  0.2500000299838448  0.24999996846499528  1.0000
  In  In2       1.0  0.7500000013822401  0.7499999886989155  0.7500000310927202  1.0000
  Pt  Pt1       1.0  0.999999986402658  0.9999999776901011  4.8780622533590864e-08  1.0000
  Cl  Cl1       1.0  0.2335181960560833  0.23351813410799072  0.7664818027636541  1.0000
  Cl  Cl2       1.0  0.7664817914314779  0.7664818777101856  0.23351814928838302  1.0000
  Cl  Cl3       1.0  0.7664817948880497  0.233518205563113  0.2335182302703851  1.0000
  Cl  Cl4       1.0  0.2335182283609767  0.7664816844086915  0.7664818222744281  1.0000
  Cl  Cl5       1.0  0.2335181918847486  0.7664818561019114  0.23351819249743477  1.0000
  Cl  Cl6       1.0  0.7664818024981895  0.23351824667200652  0.7664817512646375  1.0000
