data_image0
_chemical_formula_structural       In2PbCl6
_chemical_formula_sum              "In2 Pb1 Cl6"
_cell_length_a       7.299016044112892
_cell_length_b       7.299016017635646
_cell_length_c       7.299016118489629
_cell_angle_alpha    59.999999871477456
_cell_angle_beta     59.999999245594715
_cell_angle_gamma    60.000000923679586

_space_group_name_H-M_alt    "P 1"
_space_group_IT_number       1

loop_
  _space_group_symop_operation_xyz
  'x, y, z'

loop_
  _atom_site_type_symbol
  _atom_site_label
  _atom_site_symmetry_multiplicity
  _atom_site_fract_x
  _atom_site_fract_y
  _atom_site_fract_z
  _atom_site_occupancy
  In  In1       1.0  0.24999997041511146  0.2500000377221296  0.24999999038693757  1.0000
  In  In2       1.0  0.7499999987047619  0.7499999789296804  0.7500000000296433  1.0000
  Pb  Pb1       1.0  4.0939936694582085e-08  1.0067753831963988e-08  0.9999999868265836  1.0000
  Cl  Cl1       1.0  0.25101397524694746  0.2510139067627699  0.7489860713641024  1.0000
  Cl  Cl2       1.0  0.7489860323206208  0.7489860847196576  0.25101395077465655  1.0000
  Cl  Cl3       1.0  0.7489860223906483  0.25101395066135507  0.2510139773178813  1.0000
  Cl  Cl4       1.0  0.2510139782896214  0.7489860424990313  0.7489860337250711  1.0000
  Cl  Cl5       1.0  0.25101397615034104  0.7489860314692136  0.2510139614711201  1.0000
  Cl  Cl6       1.0  0.7489860024779657  0.2510139566572956  0.7489860398239421  1.0000
