data_image0
_chemical_formula_structural       In2RhF6
_chemical_formula_sum              "In2 Rh1 F6"
_cell_length_a       5.850789129985525
_cell_length_b       5.850789404789305
_cell_length_c       5.85078923575941
_cell_angle_alpha    60.00000071137619
_cell_angle_beta     59.99999999588164
_cell_angle_gamma    60.00000141519291

_space_group_name_H-M_alt    "P 1"
_space_group_IT_number       1

loop_
  _space_group_symop_operation_xyz
  'x, y, z'

loop_
  _atom_site_type_symbol
  _atom_site_label
  _atom_site_symmetry_multiplicity
  _atom_site_fract_x
  _atom_site_fract_y
  _atom_site_fract_z
  _atom_site_occupancy
  In  In1       1.0  0.2500000762051862  0.24999993672962925  0.24999995695377694  1.0000
  In  In2       1.0  0.7499999873768457  0.7500000069589431  0.7499999871000698  1.0000
  Rh  Rh1       1.0  0.9999999981255974  2.9306178572163948e-08  0.9999999965391387  1.0000
  F   F1        1.0  0.24013469579312288  0.24013471669031702  0.7598653036634129  1.0000
  F   F2        1.0  0.7598653382227568  0.7598653630626554  0.24013468798240573  1.0000
  F   F3        1.0  0.7598652564720916  0.24013470082287394  0.24013473871582877  1.0000
  F   F4        1.0  0.24013470029713946  0.7598652554254887  0.7598652969029719  1.0000
  F   F5        1.0  0.2401347153561648  0.7598652601245642  0.2401347502589424  1.0000
  F   F6        1.0  0.7598652433661077  0.24013473170987235  0.7598652665903004  1.0000
