data_image0
_chemical_formula_structural       In2ReCl6
_chemical_formula_sum              "In2 Re1 Cl6"
_cell_length_a       7.11326631845748
_cell_length_b       7.113266587691991
_cell_length_c       7.113266459237856
_cell_angle_alpha    60.00000021152431
_cell_angle_beta     59.99999901353368
_cell_angle_gamma    60.000001687954004

_space_group_name_H-M_alt    "P 1"
_space_group_IT_number       1

loop_
  _space_group_symop_operation_xyz
  'x, y, z'

loop_
  _atom_site_type_symbol
  _atom_site_label
  _atom_site_symmetry_multiplicity
  _atom_site_fract_x
  _atom_site_fract_y
  _atom_site_fract_z
  _atom_site_occupancy
  In  In1       1.0  0.25000002772599617  0.24999995851557927  0.24999999854781285  1.0000
  In  In2       1.0  0.7499999844488595  0.7500000305065369  0.7499999801805184  1.0000
  Re  Re1       1.0  7.950818938873646e-08  5.854036997020642e-08  0.9999999520630785  1.0000
  Cl  Cl1       1.0  0.23565543425777946  0.23565537798510114  0.7643446278532459  1.0000
  Cl  Cl2       1.0  0.7643445311873032  0.7643445077304806  0.2356555228950888  1.0000
  Cl  Cl3       1.0  0.7643445329260447  0.23565546817115834  0.23565545274646782  1.0000
  Cl  Cl4       1.0  0.23565548633285285  0.7643444898589976  0.7643445604290051  1.0000
  Cl  Cl5       1.0  0.2356554337675619  0.7643445311095034  0.23565544814733252  1.0000
  Cl  Cl6       1.0  0.7643444982407099  0.23565554744494102  0.7643444766942902  1.0000
