data_image0
_chemical_formula_structural       In2ReBr6
_chemical_formula_sum              "In2 Re1 Br6"
_cell_length_a       7.497883536167627
_cell_length_b       7.497883472974183
_cell_length_c       7.497883666447322
_cell_angle_alpha    59.999998920133464
_cell_angle_beta     59.999999968378376
_cell_angle_gamma    60.000001331100755

_space_group_name_H-M_alt    "P 1"
_space_group_IT_number       1

loop_
  _space_group_symop_operation_xyz
  'x, y, z'

loop_
  _atom_site_type_symbol
  _atom_site_label
  _atom_site_symmetry_multiplicity
  _atom_site_fract_x
  _atom_site_fract_y
  _atom_site_fract_z
  _atom_site_occupancy
  In  In1       1.0  0.2499999995883059  0.2500000023682041  0.2499999965230685  1.0000
  In  In2       1.0  0.7499999931492615  0.7500000054711577  0.7500000078645673  1.0000
  Re  Re1       1.0  0.9999998402553397  5.880434524560739e-08  6.380725351430001e-08  1.0000
  Br  Br1       1.0  0.23745442850311677  0.23745436144254184  0.7625455967336695  1.0000
  Br  Br2       1.0  0.7625456194728559  0.7625456839662667  0.23745432924100848  1.0000
  Br  Br3       1.0  0.7625455754962936  0.23745440895604517  0.23745445310864954  1.0000
  Br  Br4       1.0  0.2374545015242043  0.7625455400789698  0.7625455038632434  1.0000
  Br  Br5       1.0  0.23745445335182236  0.7625455604716788  0.23745444603930912  1.0000
  Br  Br6       1.0  0.7625455848101466  0.23745438039606423  0.7625456064658068  1.0000
