data_image0
_chemical_formula_structural       In2RuF6
_chemical_formula_sum              "In2 Ru1 F6"
_cell_length_a       6.0367633591309176
_cell_length_b       6.036763484452625
_cell_length_c       6.036763195064404
_cell_angle_alpha    59.999999997479875
_cell_angle_beta     60.00000007428077
_cell_angle_gamma    60.00000003683195

_space_group_name_H-M_alt    "P 1"
_space_group_IT_number       1

loop_
  _space_group_symop_operation_xyz
  'x, y, z'

loop_
  _atom_site_type_symbol
  _atom_site_label
  _atom_site_symmetry_multiplicity
  _atom_site_fract_x
  _atom_site_fract_y
  _atom_site_fract_z
  _atom_site_occupancy
  In  In1       1.0  0.250000000215971  0.25000006108147643  0.24999996685744852  1.0000
  In  In2       1.0  0.7500000334205692  0.7499999357295571  0.7500000211955913  1.0000
  Ru  Ru1       1.0  0.999999988311163  0.9999999776830851  3.356804485587706e-08  1.0000
  F   F1        1.0  0.231746509339713  0.23174652777428156  0.7682534515300646  1.0000
  F   F2        1.0  0.7682534867174804  0.7682534670079426  0.23174649006637937  1.0000
  F   F3        1.0  0.7682534923965079  0.23174651563458706  0.23174650840540456  1.0000
  F   F4        1.0  0.23174651334061921  0.7682534730612044  0.7682535225027161  1.0000
  F   F5        1.0  0.23174650725361737  0.768253493221925  0.2317464693309374  1.0000
  F   F6        1.0  0.7682534728051512  0.23174653807888557  0.7682535498008187  1.0000
