data_image0
_chemical_formula_structural       In2RhI6
_chemical_formula_sum              "In2 Rh1 I6"
_cell_length_a       7.791551215933374
_cell_length_b       7.7915510443023415
_cell_length_c       7.7915511691899875
_cell_angle_alpha    60.00000066477708
_cell_angle_beta     59.99999879385463
_cell_angle_gamma    60.00000120682566

_space_group_name_H-M_alt    "P 1"
_space_group_IT_number       1

loop_
  _space_group_symop_operation_xyz
  'x, y, z'

loop_
  _atom_site_type_symbol
  _atom_site_label
  _atom_site_symmetry_multiplicity
  _atom_site_fract_x
  _atom_site_fract_y
  _atom_site_fract_z
  _atom_site_occupancy
  In  In1       1.0  0.2499999999715666  0.249999985901412  0.25000001634529084  1.0000
  In  In2       1.0  0.7499999732080233  0.7500000111484398  0.7499999958804234  1.0000
  Rh  Rh1       1.0  0.9999999609288578  2.8293991098636287e-08  5.030902820184769e-08  1.0000
  I   I1        1.0  0.2445951495818311  0.24459511991187266  0.755404871386866  1.0000
  I   I2        1.0  0.7554048940141241  0.7554049148633016  0.24459509575209426  1.0000
  I   I3        1.0  0.7554048743362788  0.2445950998554296  0.24459513764303698  1.0000
  I   I4        1.0  0.24459515990546596  0.7554048296032219  0.7554048239426566  1.0000
  I   I5        1.0  0.24459514345916347  0.7554048828477369  0.24459515884084426  1.0000
  I   I6        1.0  0.7554048481926477  0.24459512992099922  0.7554048452734077  1.0000
