data_image0
_chemical_formula_structural       In2RuCl6
_chemical_formula_sum              "In2 Ru1 Cl6"
_cell_length_a       7.130673579485493
_cell_length_b       7.130673709836264
_cell_length_c       7.130673341509964
_cell_angle_alpha    60.000000908844974
_cell_angle_beta     60.00000023495826
_cell_angle_gamma    60.00000069415289

_space_group_name_H-M_alt    "P 1"
_space_group_IT_number       1

loop_
  _space_group_symop_operation_xyz
  'x, y, z'

loop_
  _atom_site_type_symbol
  _atom_site_label
  _atom_site_symmetry_multiplicity
  _atom_site_fract_x
  _atom_site_fract_y
  _atom_site_fract_z
  _atom_site_occupancy
  In  In1       1.0  0.25000003991264863  0.250000016867356  0.24999997115577033  1.0000
  In  In2       1.0  0.7500000263240614  0.7499999956397504  0.7499999568027866  1.0000
  Ru  Ru1       1.0  0.9999998141039662  0.9999999261443857  1.354853941492525e-07  1.0000
  Cl  Cl1       1.0  0.2337066420856478  0.23370661524392447  0.7662933569566885  1.0000
  Cl  Cl2       1.0  0.7662934204043754  0.7662934522254996  0.23370655380840555  1.0000
  Cl  Cl3       1.0  0.7662933896343009  0.23370662132221381  0.2337065694090216  1.0000
  Cl  Cl4       1.0  0.23370659915178704  0.7662934049254718  0.7662934058308706  1.0000
  Cl  Cl5       1.0  0.23370667006599255  0.7662933616312009  0.23370665047261976  1.0000
  Cl  Cl6       1.0  0.7662934181230935  0.23370657530271804  0.7662933912446539  1.0000
