data_image0
_chemical_formula_structural       In2ReF6
_chemical_formula_sum              "In2 Re1 F6"
_cell_length_a       6.162744365422173
_cell_length_b       6.162744116272845
_cell_length_c       6.1627440815125984
_cell_angle_alpha    60.000001223447846
_cell_angle_beta     60.00000113658662
_cell_angle_gamma    60.00000018140399

_space_group_name_H-M_alt    "P 1"
_space_group_IT_number       1

loop_
  _space_group_symop_operation_xyz
  'x, y, z'

loop_
  _atom_site_type_symbol
  _atom_site_label
  _atom_site_symmetry_multiplicity
  _atom_site_fract_x
  _atom_site_fract_y
  _atom_site_fract_z
  _atom_site_occupancy
  In  In1       1.0  0.2500000530495454  0.2500000436049743  0.2499999203241139  1.0000
  In  In2       1.0  0.749999977707083  0.7499999837519966  0.750000116697727  1.0000
  Re  Re1       1.0  2.4471486047644955e-08  0.9999999940379892  0.9999999777640319  1.0000
  F   F1        1.0  0.22600089030179246  0.22600093435002963  0.773999091783321  1.0000
  F   F2        1.0  0.7739991221726769  0.7739990691588979  0.22600089652950855  1.0000
  F   F3        1.0  0.773999073795371  0.2260009151335999  0.22600092456965032  1.0000
  F   F4        1.0  0.2260008842287469  0.773999094337338  0.7739990750061195  1.0000
  F   F5        1.0  0.22600093552998715  0.77399905927125  0.22600091292802688  1.0000
  F   F6        1.0  0.7739990641697023  0.2260009263516451  0.7739990533941716  1.0000
