data_image0
_chemical_formula_structural       In2RuBr6
_chemical_formula_sum              "In2 Ru1 Br6"
_cell_length_a       7.423953763286018
_cell_length_b       7.423953867877579
_cell_length_c       7.4239540085359215
_cell_angle_alpha    59.999998532611144
_cell_angle_beta     59.999999424846386
_cell_angle_gamma    59.999999618199176

_space_group_name_H-M_alt    "P 1"
_space_group_IT_number       1

loop_
  _space_group_symop_operation_xyz
  'x, y, z'

loop_
  _atom_site_type_symbol
  _atom_site_label
  _atom_site_symmetry_multiplicity
  _atom_site_fract_x
  _atom_site_fract_y
  _atom_site_fract_z
  _atom_site_occupancy
  In  In1       1.0  0.2500000029639936  0.2500000101570153  0.2499999949483034  1.0000
  In  In2       1.0  0.749999999120382  0.7499999991263566  0.7499999905861524  1.0000
  Ru  Ru1       1.0  0.9999999925519775  6.433909808532743e-08  8.874268778008626e-08  1.0000
  Br  Br1       1.0  0.23849924929860758  0.2384993012746577  0.7615007243283682  1.0000
  Br  Br2       1.0  0.7615006733055029  0.7615006618165402  0.2384993078784138  1.0000
  Br  Br3       1.0  0.761500695190813  0.23849932369822988  0.23849933262619433  1.0000
  Br  Br4       1.0  0.23849936155263485  0.7615006195963228  0.7615006006525182  1.0000
  Br  Br5       1.0  0.23849931982221892  0.7615006899424738  0.238499338554631  1.0000
  Br  Br6       1.0  0.7615007122697712  0.2384993226403389  0.7615006370612527  1.0000
