data_image0
_chemical_formula_structural       In2ReI6
_chemical_formula_sum              "In2 Re1 I6"
_cell_length_a       7.917646346875006
_cell_length_b       7.917646402173554
_cell_length_c       7.917646225104275
_cell_angle_alpha    59.999999310369674
_cell_angle_beta     60.00000042209214
_cell_angle_gamma    59.999999654130185

_space_group_name_H-M_alt    "P 1"
_space_group_IT_number       1

loop_
  _space_group_symop_operation_xyz
  'x, y, z'

loop_
  _atom_site_type_symbol
  _atom_site_label
  _atom_site_symmetry_multiplicity
  _atom_site_fract_x
  _atom_site_fract_y
  _atom_site_fract_z
  _atom_site_occupancy
  In  In1       1.0  0.24999997845824504  0.2500000161473481  0.2500000007734172  1.0000
  In  In2       1.0  0.7500000040378234  0.749999991208419  0.7500000130245419  1.0000
  Re  Re1       1.0  0.9999999710976258  0.9999999860783076  1.130802046449811e-08  1.0000
  I   I1        1.0  0.24357923386882543  0.24357924625266317  0.7564207590297037  1.0000
  I   I2        1.0  0.756420769648768  0.7564207549156854  0.24357922461717316  1.0000
  I   I3        1.0  0.7564207338278359  0.24357928481475985  0.243579247425018  1.0000
  I   I4        1.0  0.24357925448660855  0.7564207488375375  0.7564207604195009  1.0000
  I   I5        1.0  0.24357927178350225  0.756420750792397  0.2435792048900594  1.0000
  I   I6        1.0  0.7564207842512601  0.24357922407942062  0.7564207845915232  1.0000
