data_image0
_chemical_formula_structural       In2RhCl6
_chemical_formula_sum              "In2 Rh1 Cl6"
_cell_length_a       7.104103065461438
_cell_length_b       7.104102700302498
_cell_length_c       7.104103251859612
_cell_angle_alpha    59.999998033850616
_cell_angle_beta     59.999998090230285
_cell_angle_gamma    60.000000163406476

_space_group_name_H-M_alt    "P 1"
_space_group_IT_number       1

loop_
  _space_group_symop_operation_xyz
  'x, y, z'

loop_
  _atom_site_type_symbol
  _atom_site_label
  _atom_site_symmetry_multiplicity
  _atom_site_fract_x
  _atom_site_fract_y
  _atom_site_fract_z
  _atom_site_occupancy
  In  In1       1.0  0.24999999688342728  0.250000021273387  0.24999998362561576  1.0000
  In  In2       1.0  0.7499999851994175  0.7500000655441577  0.7499999710395646  1.0000
  Rh  Rh1       1.0  0.9999999597623005  0.999999808636377  2.19965813402811e-07  1.0000
  Cl  Cl1       1.0  0.23510736473285826  0.2351073195291721  0.7648926694947136  1.0000
  Cl  Cl2       1.0  0.7648927148739556  0.7648927672883753  0.23510725189248932  1.0000
  Cl  Cl3       1.0  0.7648926687337666  0.23510727886134145  0.23510742113644886  1.0000
  Cl  Cl4       1.0  0.23510741700007487  0.7648926286605594  0.7648925995037975  1.0000
  Cl  Cl5       1.0  0.23510733979232692  0.7648927160544358  0.2351073186949279  1.0000
  Cl  Cl6       1.0  0.7648925655023553  0.23510739145106493  0.7648925485941062  1.0000
