data_image0
_chemical_formula_structural       In2RhBr6
_chemical_formula_sum              "In2 Rh1 Br6"
_cell_length_a       7.405492266265805
_cell_length_b       7.405492158460828
_cell_length_c       7.405492133301869
_cell_angle_alpha    60.00000099006774
_cell_angle_beta     60.00000073007136
_cell_angle_gamma    60.000000494334486

_space_group_name_H-M_alt    "P 1"
_space_group_IT_number       1

loop_
  _space_group_symop_operation_xyz
  'x, y, z'

loop_
  _atom_site_type_symbol
  _atom_site_label
  _atom_site_symmetry_multiplicity
  _atom_site_fract_x
  _atom_site_fract_y
  _atom_site_fract_z
  _atom_site_occupancy
  In  In1       1.0  0.2500000240780404  0.2499999950691063  0.24999996848786185  1.0000
  In  In2       1.0  0.7499999890426542  0.749999986861153  0.7500000380561441  1.0000
  Rh  Rh1       1.0  2.131066260588955e-08  0.9999999454235049  0.9999999815238381  1.0000
  Br  Br1       1.0  0.2390024300625423  0.23900242262040572  0.7609975709928276  1.0000
  Br  Br2       1.0  0.7609976067927661  0.7609975956941832  0.23900240009031026  1.0000
  Br  Br3       1.0  0.7609975469636281  0.23900245889662175  0.23900239947982743  1.0000
  Br  Br4       1.0  0.2390023927453298  0.7609975842254652  0.7609976563853061  1.0000
  Br  Br5       1.0  0.23900240715295448  0.7609975809541488  0.2390023694209862  1.0000
  Br  Br6       1.0  0.7609975763257839  0.23900242909127414  0.7609976176311789  1.0000
