data_image0
_chemical_formula_structural       In2RuI6
_chemical_formula_sum              "In2 Ru1 I6"
_cell_length_a       7.781762714555723
_cell_length_b       7.7817627670842455
_cell_length_c       7.781762842908427
_cell_angle_alpha    59.99999995032892
_cell_angle_beta     59.99999983339248
_cell_angle_gamma    60.00000143595089

_space_group_name_H-M_alt    "P 1"
_space_group_IT_number       1

loop_
  _space_group_symop_operation_xyz
  'x, y, z'

loop_
  _atom_site_type_symbol
  _atom_site_label
  _atom_site_symmetry_multiplicity
  _atom_site_fract_x
  _atom_site_fract_y
  _atom_site_fract_z
  _atom_site_occupancy
  In  In1       1.0  0.25000000943851  0.24999998548750876  0.250000001011238  1.0000
  In  In2       1.0  0.7499999909336865  0.749999997383031  0.7500000089747183  1.0000
  Ru  Ru1       1.0  0.9999999594858686  2.3607983230310445e-08  2.1303632692762958e-08  1.0000
  I   I1        1.0  0.246138575575245  0.2461385668398073  0.753861429630941  1.0000
  I   I2        1.0  0.7538614593447784  0.7538614459341791  0.2461385584098256  1.0000
  I   I3        1.0  0.7538613919706162  0.24613860424720593  0.24613856303235226  1.0000
  I   I4        1.0  0.24613862874093526  0.7538613754756031  0.7538614075164511  1.0000
  I   I5        1.0  0.2461386159909423  0.7538613856505182  0.24613857918826185  1.0000
  I   I6        1.0  0.7538613676988092  0.24613861610640836  0.7538614284106678  1.0000
