data_image0
_chemical_formula_structural       In2SI6
_chemical_formula_sum              "In2 S1 I6"
_cell_length_a       7.78738271584099
_cell_length_b       7.787382759872006
_cell_length_c       7.787382652777816
_cell_angle_alpha    59.99999922958317
_cell_angle_beta     59.999999770294686
_cell_angle_gamma    59.9999992387243

_space_group_name_H-M_alt    "P 1"
_space_group_IT_number       1

loop_
  _space_group_symop_operation_xyz
  'x, y, z'

loop_
  _atom_site_type_symbol
  _atom_site_label
  _atom_site_symmetry_multiplicity
  _atom_site_fract_x
  _atom_site_fract_y
  _atom_site_fract_z
  _atom_site_occupancy
  In  In1       1.0  0.25000000355560803  0.2500000014912429  0.24999999853741522  1.0000
  In  In2       1.0  0.7500000068326617  0.7499999981828097  0.749999999390658  1.0000
  S   S1        1.0  1.508224408007054e-08  1.258183840673836e-08  0.9999999707584166  1.0000
  I   I1        1.0  0.26223534604900134  0.26223534876769117  0.737764665514045  1.0000
  I   I2        1.0  0.7377646062717245  0.7377646115881166  0.26223541192600724  1.0000
  I   I3        1.0  0.7377646581112212  0.2622353524437891  0.26223533927261095  1.0000
  I   I4        1.0  0.26223536902196837  0.7377646503757233  0.7377646281642163  1.0000
  I   I5        1.0  0.2622353565917543  0.7377646592325137  0.2622353391591026  1.0000
  I   I6        1.0  0.7377646427874067  0.26223537346886455  0.737764640055091  1.0000
