data_image0
_chemical_formula_structural       In2SeF6
_chemical_formula_sum              "In2 Se1 F6"
_cell_length_a       6.164979794589543
_cell_length_b       6.164979537136585
_cell_length_c       6.164979432595062
_cell_angle_alpha    60.00000014953362
_cell_angle_beta     60.00000051457643
_cell_angle_gamma    59.99999852197503

_space_group_name_H-M_alt    "P 1"
_space_group_IT_number       1

loop_
  _space_group_symop_operation_xyz
  'x, y, z'

loop_
  _atom_site_type_symbol
  _atom_site_label
  _atom_site_symmetry_multiplicity
  _atom_site_fract_x
  _atom_site_fract_y
  _atom_site_fract_z
  _atom_site_occupancy
  In  In1       1.0  0.25000003162716916  0.2500000217907131  0.24999996068428437  1.0000
  In  In2       1.0  0.7500001277840402  0.7499999441885452  0.7499999943201319  1.0000
  Se  Se1       1.0  0.9999999970298223  0.9999999920535348  2.81672374351121e-08  1.0000
  F   F1        1.0  0.22772118137307873  0.2277211755368692  0.7722787757851135  1.0000
  F   F2        1.0  0.7722787924585555  0.772278863947194  0.22772113306656755  1.0000
  F   F3        1.0  0.7722788185409918  0.22772116749985336  0.22772117674376408  1.0000
  F   F4        1.0  0.22772114197190416  0.7722788501314308  0.7722788421514052  1.0000
  F   F5        1.0  0.2277211111745373  0.7722788199338793  0.22772123272388634  1.0000
  F   F6        1.0  0.7722788146408031  0.2277211837910913  0.7722788072290873  1.0000
