data_image0
_chemical_formula_structural       In2SnF6
_chemical_formula_sum              "In2 Sn1 F6"
_cell_length_a       6.141578533733994
_cell_length_b       6.141578696928055
_cell_length_c       6.14157854644587
_cell_angle_alpha    59.99999894856046
_cell_angle_beta     59.999998969596355
_cell_angle_gamma    59.999999523193196

_space_group_name_H-M_alt    "P 1"
_space_group_IT_number       1

loop_
  _space_group_symop_operation_xyz
  'x, y, z'

loop_
  _atom_site_type_symbol
  _atom_site_label
  _atom_site_symmetry_multiplicity
  _atom_site_fract_x
  _atom_site_fract_y
  _atom_site_fract_z
  _atom_site_occupancy
  In  In1       1.0  0.25000000838730546  0.25000001423523965  0.24999994863538355  1.0000
  In  In2       1.0  0.7499999822804937  0.7499999908568868  0.7500000219027041  1.0000
  Sn  Sn1       1.0  3.1183541442302896e-08  7.976743666353357e-09  0.9999999413419558  1.0000
  F   F1        1.0  0.23119188170260277  0.23119185646004436  0.7688081640130208  1.0000
  F   F2        1.0  0.7688081177011499  0.7688081506262674  0.2311918353531608  1.0000
  F   F3        1.0  0.7688081645907012  0.23119180797424793  0.23119189406765867  1.0000
  F   F4        1.0  0.2311918901744881  0.768808089431846  0.7688081585098488  1.0000
  F   F5        1.0  0.23119180859646835  0.7688081805871181  0.23119188047323785  1.0000
  F   F6        1.0  0.7688081042818734  0.23119189430150935  0.7688081575629171  1.0000
