data_image0
_chemical_formula_structural       In2SnI6
_chemical_formula_sum              "In2 Sn1 I6"
_cell_length_a       8.044094931360865
_cell_length_b       8.044094895161866
_cell_length_c       8.044094967829983
_cell_angle_alpha    59.99999931235522
_cell_angle_beta     59.99999950281315
_cell_angle_gamma    60.00000030407044

_space_group_name_H-M_alt    "P 1"
_space_group_IT_number       1

loop_
  _space_group_symop_operation_xyz
  'x, y, z'

loop_
  _atom_site_type_symbol
  _atom_site_label
  _atom_site_symmetry_multiplicity
  _atom_site_fract_x
  _atom_site_fract_y
  _atom_site_fract_z
  _atom_site_occupancy
  In  In1       1.0  0.25000000239950726  0.25000000424508184  0.24999999852982843  1.0000
  In  In2       1.0  0.7500000061984351  0.7499999898971597  0.7500000087517195  1.0000
  Sn  Sn1       1.0  0.999999980498098  0.9999999939098434  5.506305892661098e-08  1.0000
  I   I1        1.0  0.25957329474284857  0.2595733371726112  0.7404266878407457  1.0000
  I   I2        1.0  0.7404267194227973  0.7404266661048647  0.259573310846185  1.0000
  I   I3        1.0  0.7404267005999186  0.25957333926094317  0.2595733034416529  1.0000
  I   I4        1.0  0.2595733308933056  0.7404266335657516  0.7404266669987375  1.0000
  I   I5        1.0  0.25957329861353845  0.7404266837755455  0.2595733307832304  1.0000
  I   I6        1.0  0.7404266636863276  0.2595733545203287  0.7404266402761013  1.0000
