data_image0
_chemical_formula_structural       In2SBr6
_chemical_formula_sum              "In2 S1 Br6"
_cell_length_a       7.466495014147677
_cell_length_b       7.466494819419692
_cell_length_c       7.466495028289049
_cell_angle_alpha    60.000000262193666
_cell_angle_beta     60.00000006587346
_cell_angle_gamma    59.999999411135306

_space_group_name_H-M_alt    "P 1"
_space_group_IT_number       1

loop_
  _space_group_symop_operation_xyz
  'x, y, z'

loop_
  _atom_site_type_symbol
  _atom_site_label
  _atom_site_symmetry_multiplicity
  _atom_site_fract_x
  _atom_site_fract_y
  _atom_site_fract_z
  _atom_site_occupancy
  In  In1       1.0  0.24999999816414853  0.24999998913744118  0.2500000122986746  1.0000
  In  In2       1.0  0.7499999961943867  0.7500000133413128  0.7499999769190133  1.0000
  S   S1        1.0  0.9999999427014331  0.9999999770355054  4.548879648674635e-08  1.0000
  Br  Br1       1.0  0.24394909162847805  0.24394905627865285  0.7560509287020029  1.0000
  Br  Br2       1.0  0.756050955951965  0.7560509396388168  0.2439490438819558  1.0000
  Br  Br3       1.0  0.7560509429889514  0.24394904465546804  0.2439490613616774  1.0000
  Br  Br4       1.0  0.24394907002150923  0.7560509529023229  0.7560509370623273  1.0000
  Br  Br5       1.0  0.24394906029492772  0.756050942976154  0.2439490536291309  1.0000
  Br  Br6       1.0  0.7560509415147201  0.2439490742654897  0.7560509445713037  1.0000
