data_image0
_chemical_formula_structural       In2ScI6
_chemical_formula_sum              "In2 Sc1 I6"
_cell_length_a       8.055845267371575
_cell_length_b       8.055845332375023
_cell_length_c       8.055845366829526
_cell_angle_alpha    59.99999915042649
_cell_angle_beta     60.00000055911309
_cell_angle_gamma    59.999999740126825

_space_group_name_H-M_alt    "P 1"
_space_group_IT_number       1

loop_
  _space_group_symop_operation_xyz
  'x, y, z'

loop_
  _atom_site_type_symbol
  _atom_site_label
  _atom_site_symmetry_multiplicity
  _atom_site_fract_x
  _atom_site_fract_y
  _atom_site_fract_z
  _atom_site_occupancy
  In  In1       1.0  0.2500000065753717  0.24999999445911028  0.2499999933423488  1.0000
  In  In2       1.0  0.7500000042049748  0.7499999955398768  0.7500000065330363  1.0000
  Sc  Sc1       1.0  1.4318778962294247e-08  2.5845411389528876e-08  0.9999999091618297  1.0000
  I   I1        1.0  0.2504848619002589  0.25048489564942616  0.749515108455138  1.0000
  I   I2        1.0  0.7495150789058124  0.749515080666697  0.2504849009741153  1.0000
  I   I3        1.0  0.7495150785741015  0.2504849499061243  0.25048491664563227  1.0000
  I   I4        1.0  0.25048488360081494  0.7495151085071847  0.7495151006346686  1.0000
  I   I5        1.0  0.2504849183748287  0.7495150884920024  0.2504849149262266  1.0000
  I   I6        1.0  0.7495151543161839  0.25048486197870884  0.7495151494793777  1.0000
