data_image0
_chemical_formula_structural       In2SiI6
_chemical_formula_sum              "In2 Si1 I6"
_cell_length_a       7.898161068861879
_cell_length_b       7.8981611396846585
_cell_length_c       7.898161150705503
_cell_angle_alpha    59.999999651022804
_cell_angle_beta     60.00000013489579
_cell_angle_gamma    59.99999945071211

_space_group_name_H-M_alt    "P 1"
_space_group_IT_number       1

loop_
  _space_group_symop_operation_xyz
  'x, y, z'

loop_
  _atom_site_type_symbol
  _atom_site_label
  _atom_site_symmetry_multiplicity
  _atom_site_fract_x
  _atom_site_fract_y
  _atom_site_fract_z
  _atom_site_occupancy
  In  In1       1.0  0.25000001054336085  0.24999999221036417  0.24999998561462014  1.0000
  In  In2       1.0  0.7500000006470959  0.7500000169485362  0.7500000167486237  1.0000
  Si  Si1       1.0  4.93328186527669e-09  0.999999945726518  1.580727779140773e-08  1.0000
  I   I1        1.0  0.24311312097024715  0.2431131484074053  0.7568868731398314  1.0000
  I   I2        1.0  0.7568868875470737  0.7568868731568624  0.24311311802670937  1.0000
  I   I3        1.0  0.756886886347018  0.24311314192324343  0.243113113743047  1.0000
  I   I4        1.0  0.24311310626581942  0.756886870336999  0.7568868950922181  1.0000
  I   I5        1.0  0.24311311286363757  0.7568868869841135  0.2431131071981025  1.0000
  I   I6        1.0  0.7568868679646226  0.2431131299281419  0.7568868735505072  1.0000
