data_image0
_chemical_formula_structural       In2SBr6
_chemical_formula_sum              "In2 S1 Br6"
_cell_length_a       7.455393360500939
_cell_length_b       7.455393339619358
_cell_length_c       7.455393409363941
_cell_angle_alpha    59.99999931732084
_cell_angle_beta     59.999999264949345
_cell_angle_gamma    59.999998954600166

_space_group_name_H-M_alt    "P 1"
_space_group_IT_number       1

loop_
  _space_group_symop_operation_xyz
  'x, y, z'

loop_
  _atom_site_type_symbol
  _atom_site_label
  _atom_site_symmetry_multiplicity
  _atom_site_fract_x
  _atom_site_fract_y
  _atom_site_fract_z
  _atom_site_occupancy
  In  In1       1.0  0.24999997991822576  0.24999999918040008  0.25000004032983736  1.0000
  In  In2       1.0  0.7500000007837796  0.7500000188971269  0.7500000248032529  1.0000
  S   S1        1.0  9.529135800893187e-09  0.9999999063624746  3.937157336456209e-08  1.0000
  Br  Br1       1.0  0.2442374661686341  0.24423743634436942  0.7557625431593925  1.0000
  Br  Br2       1.0  0.7557625783004132  0.755762594875266  0.24423740840571517  1.0000
  Br  Br3       1.0  0.7557625682306446  0.24423742560814546  0.2442374119109282  1.0000
  Br  Br4       1.0  0.24423740372607472  0.7557625908266181  0.7557625859854014  1.0000
  Br  Br5       1.0  0.2442374077465653  0.7557625821325328  0.24423739030781785  1.0000
  Br  Br6       1.0  0.7557625852519884  0.24423744087328492  0.7557625669558508  1.0000
