data_image0
_chemical_formula_structural       In2SI6
_chemical_formula_sum              "In2 S1 I6"
_cell_length_a       7.785402841614516
_cell_length_b       7.785402847156034
_cell_length_c       7.78540279330823
_cell_angle_alpha    60.000000371032385
_cell_angle_beta     60.00000023257378
_cell_angle_gamma    59.999999523996976

_space_group_name_H-M_alt    "P 1"
_space_group_IT_number       1

loop_
  _space_group_symop_operation_xyz
  'x, y, z'

loop_
  _atom_site_type_symbol
  _atom_site_label
  _atom_site_symmetry_multiplicity
  _atom_site_fract_x
  _atom_site_fract_y
  _atom_site_fract_z
  _atom_site_occupancy
  In  In1       1.0  0.24999999482209395  0.2499999934593391  0.25000000404049805  1.0000
  In  In2       1.0  0.750000000675647  0.7500000118406118  0.7499999947077897  1.0000
  S   S1        1.0  1.933005092623538e-09  0.999999976403054  3.138325134961896e-08  1.0000
  I   I1        1.0  0.2623236649030079  0.26232363759133825  0.7376763409573222  1.0000
  I   I2        1.0  0.7376763464750957  0.737676364562353  0.26232364243272854  1.0000
  I   I3        1.0  0.7376763659855569  0.2623236428343621  0.2623236275134364  1.0000
  I   I4        1.0  0.26232363911546397  0.7376763514536806  0.7376763680858  1.0000
  I   I5        1.0  0.2623236230734483  0.7376763680407163  0.2623236303568605  1.0000
  I   I6        1.0  0.737676362731044  0.26232365299053195  0.7376763563812173  1.0000
