data_image0
_chemical_formula_structural       In2SnI6
_chemical_formula_sum              "In2 Sn1 I6"
_cell_length_a       8.042800145301156
_cell_length_b       8.04280015829591
_cell_length_c       8.042800125544531
_cell_angle_alpha    60.00000057330542
_cell_angle_beta     59.9999996132512
_cell_angle_gamma    59.99999968182272

_space_group_name_H-M_alt    "P 1"
_space_group_IT_number       1

loop_
  _space_group_symop_operation_xyz
  'x, y, z'

loop_
  _atom_site_type_symbol
  _atom_site_label
  _atom_site_symmetry_multiplicity
  _atom_site_fract_x
  _atom_site_fract_y
  _atom_site_fract_z
  _atom_site_occupancy
  In  In1       1.0  0.24999999708924475  0.2499999993469793  0.2500000063550304  1.0000
  In  In2       1.0  0.7500000033479763  0.749999991949801  0.7499999999070136  1.0000
  Sn  Sn1       1.0  2.6842751444641437e-08  2.2841762328902556e-08  0.9999999987813564  1.0000
  I   I1        1.0  0.2594867358040912  0.2594867499871392  0.7405132576006855  1.0000
  I   I2        1.0  0.7405132433739202  0.7405132017172534  0.259486776600461  1.0000
  I   I3        1.0  0.7405132522248671  0.25948675897861107  0.25948674658692295  1.0000
  I   I4        1.0  0.2594867566523432  0.7405132414548742  0.7405132446700337  1.0000
  I   I5        1.0  0.2594867547664522  0.7405132366897008  0.2594867473229452  1.0000
  I   I6        1.0  0.7405132285867274  0.2594867972450359  0.7405132225385284  1.0000
