data_image0
_chemical_formula_structural       In2SnCl6
_chemical_formula_sum              "In2 Sn1 Cl6"
_cell_length_a       7.251460470277985
_cell_length_b       7.251460553248242
_cell_length_c       7.251460495785006
_cell_angle_alpha    59.99999991730248
_cell_angle_beta     60.00000102747841
_cell_angle_gamma    59.99999941006804

_space_group_name_H-M_alt    "P 1"
_space_group_IT_number       1

loop_
  _space_group_symop_operation_xyz
  'x, y, z'

loop_
  _atom_site_type_symbol
  _atom_site_label
  _atom_site_symmetry_multiplicity
  _atom_site_fract_x
  _atom_site_fract_y
  _atom_site_fract_z
  _atom_site_occupancy
  In  In1       1.0  0.24999998539575546  0.2500000117439959  0.24999999357714384  1.0000
  In  In2       1.0  0.7499999864588627  0.7500000065196157  0.7500000061534381  1.0000
  Sn  Sn1       1.0  0.9999999752616852  1.6889632000091492e-08  0.9999998246501107  1.0000
  Cl  Cl1       1.0  0.24097523360143266  0.2409752736195607  0.7590247236032999  1.0000
  Cl  Cl2       1.0  0.7590247415179447  0.7590247682895336  0.24097523509151011  1.0000
  Cl  Cl3       1.0  0.7590246513591526  0.24097530419218838  0.24097528867571114  1.0000
  Cl  Cl4       1.0  0.24097524993166322  0.7590247681182403  0.759024802055315  1.0000
  Cl  Cl5       1.0  0.24097530335557218  0.7590247284694701  0.2409752750492024  1.0000
  Cl  Cl6       1.0  0.759024871762216  0.24097512427576148  0.7590248464703059  1.0000
