data_image0
_chemical_formula_structural       In2SeCl6
_chemical_formula_sum              "In2 Se1 Cl6"
_cell_length_a       7.18845153373248
_cell_length_b       7.188451728176353
_cell_length_c       7.188451894865835
_cell_angle_alpha    60.00000052764124
_cell_angle_beta     59.99999958759836
_cell_angle_gamma    60.000001146093794

_space_group_name_H-M_alt    "P 1"
_space_group_IT_number       1

loop_
  _space_group_symop_operation_xyz
  'x, y, z'

loop_
  _atom_site_type_symbol
  _atom_site_label
  _atom_site_symmetry_multiplicity
  _atom_site_fract_x
  _atom_site_fract_y
  _atom_site_fract_z
  _atom_site_occupancy
  In  In1       1.0  0.24999997101337426  0.2500000299430802  0.24999997964561038  1.0000
  In  In2       1.0  0.7499999725411006  0.7499999739730686  0.7499999949368297  1.0000
  Se  Se1       1.0  0.9999999711028285  0.9999999710359578  1.4300245538104405e-07  1.0000
  Cl  Cl1       1.0  0.2397645803584933  0.23976462930814596  0.7602354088377111  1.0000
  Cl  Cl2       1.0  0.7602354593945884  0.7602355245395214  0.23976452336463527  1.0000
  Cl  Cl3       1.0  0.7602353929389032  0.23976457687191965  0.23976468295950845  1.0000
  Cl  Cl4       1.0  0.2397646444173431  0.76023530948429  0.7602352937641745  1.0000
  Cl  Cl5       1.0  0.23976464468624284  0.7602353179327401  0.23976470620911178  1.0000
  Cl  Cl6       1.0  0.7602353577511346  0.23976465872313332  0.7602352762110568  1.0000
