data_image0
_chemical_formula_structural       In2SeBr6
_chemical_formula_sum              "In2 Se1 Br6"
_cell_length_a       7.594020548149576
_cell_length_b       7.5940206392853
_cell_length_c       7.594020523457719
_cell_angle_alpha    59.99999925098528
_cell_angle_beta     59.99999991613302
_cell_angle_gamma    59.99999965870685

_space_group_name_H-M_alt    "P 1"
_space_group_IT_number       1

loop_
  _space_group_symop_operation_xyz
  'x, y, z'

loop_
  _atom_site_type_symbol
  _atom_site_label
  _atom_site_symmetry_multiplicity
  _atom_site_fract_x
  _atom_site_fract_y
  _atom_site_fract_z
  _atom_site_occupancy
  In  In1       1.0  0.2500000084367531  0.2500000153566272  0.24999998909600255  1.0000
  In  In2       1.0  0.7500000095066902  0.7499999976866231  0.7499999993814218  1.0000
  Se  Se1       1.0  0.9999999645058334  0.9999999741955958  4.312775344341511e-09  1.0000
  Br  Br1       1.0  0.24339856713772565  0.24339858392312957  0.756601409504789  1.0000
  Br  Br2       1.0  0.7566014722777381  0.7566014194434694  0.2433985401543131  1.0000
  Br  Br3       1.0  0.7566014037221834  0.2433986026315062  0.24339858874666143  1.0000
  Br  Br4       1.0  0.2433985664547192  0.7566014168628447  0.7566014546259464  1.0000
  Br  Br5       1.0  0.24339858688613172  0.7566013995929579  0.24339857876252532  1.0000
  Br  Br6       1.0  0.7566014223030215  0.24339859409698864  0.7566014329864748  1.0000
