data_image0
_chemical_formula_structural       In2SnBr6
_chemical_formula_sum              "In2 Sn1 Br6"
_cell_length_a       7.541001953038704
_cell_length_b       7.541001950755839
_cell_length_c       7.541001978605854
_cell_angle_alpha    60.00000001524334
_cell_angle_beta     60.00000022864987
_cell_angle_gamma    59.9999998393731

_space_group_name_H-M_alt    "P 1"
_space_group_IT_number       1

loop_
  _space_group_symop_operation_xyz
  'x, y, z'

loop_
  _atom_site_type_symbol
  _atom_site_label
  _atom_site_symmetry_multiplicity
  _atom_site_fract_x
  _atom_site_fract_y
  _atom_site_fract_z
  _atom_site_occupancy
  In  In1       1.0  0.24999999952915072  0.24999998722371375  0.25000000761953467  1.0000
  In  In2       1.0  0.7500000026078962  0.75000001851514  0.7499999871220476  1.0000
  Sn  Sn1       1.0  0.999999996534129  7.470925549368009e-08  0.9999999657043915  1.0000
  Br  Br1       1.0  0.24853384169184048  0.24853384583306  0.7514661705814928  1.0000
  Br  Br2       1.0  0.751466106435557  0.7514661014376809  0.24853390559456134  1.0000
  Br  Br3       1.0  0.7514661766385655  0.24853382675195806  0.24853383008944768  1.0000
  Br  Br4       1.0  0.24853386911598702  0.7514661400081536  0.7514661278545761  1.0000
  Br  Br5       1.0  0.24853386039625647  0.7514661609858889  0.24853384419006766  1.0000
  Br  Br6       1.0  0.7514661510210525  0.2485338398806222  0.7514661576301412  1.0000
