data_image0
_chemical_formula_structural       In2SeI6
_chemical_formula_sum              "In2 Se1 I6"
_cell_length_a       7.924647884648747
_cell_length_b       7.924647847717552
_cell_length_c       7.924647869077227
_cell_angle_alpha    59.999999510831614
_cell_angle_beta     59.99999994540755
_cell_angle_gamma    60.00000022359752

_space_group_name_H-M_alt    "P 1"
_space_group_IT_number       1

loop_
  _space_group_symop_operation_xyz
  'x, y, z'

loop_
  _atom_site_type_symbol
  _atom_site_label
  _atom_site_symmetry_multiplicity
  _atom_site_fract_x
  _atom_site_fract_y
  _atom_site_fract_z
  _atom_site_occupancy
  In  In1       1.0  0.2500000141667905  0.24999999771123357  0.24999999376843432  1.0000
  In  In2       1.0  0.7499999962115547  0.7500000008611407  0.7500000056335342  1.0000
  Se  Se1       1.0  5.15162683381947e-10  0.9999999984545119  5.562705598739471e-09  1.0000
  I   I1        1.0  0.25903458143375835  0.2590345774715101  0.7409654272179276  1.0000
  I   I2        1.0  0.7409654162574605  0.7409654241918404  0.2590345820296589  1.0000
  I   I3        1.0  0.7409653975981396  0.25903460002978174  0.25903459273662827  1.0000
  I   I4        1.0  0.25903460266889283  0.7409653939061284  0.7409653976347146  1.0000
  I   I5        1.0  0.25903460190187166  0.7409654066921071  0.2590345837085032  1.0000
  I   I6        1.0  0.7409653942438591  0.25903459960770775  0.7409654075890808  1.0000
