data_image0
_chemical_formula_structural       In2ScF6
_chemical_formula_sum              "In2 Sc1 F6"
_cell_length_a       5.745536036074931
_cell_length_b       5.7455363361511695
_cell_length_c       5.745536067872638
_cell_angle_alpha    60.00000163685614
_cell_angle_beta     60.00000186258457
_cell_angle_gamma    60.0000011526445

_space_group_name_H-M_alt    "P 1"
_space_group_IT_number       1

loop_
  _space_group_symop_operation_xyz
  'x, y, z'

loop_
  _atom_site_type_symbol
  _atom_site_label
  _atom_site_symmetry_multiplicity
  _atom_site_fract_x
  _atom_site_fract_y
  _atom_site_fract_z
  _atom_site_occupancy
  In  In1       1.0  0.2499999595281557  0.25000003766455114  0.24999995776484557  1.0000
  In  In2       1.0  0.7499999705273095  0.7499999637784449  0.750000006359619  1.0000
  Sc  Sc1       1.0  3.8895514743238976e-08  0.9999999978683538  0.9999999816180664  1.0000
  F   F1        1.0  0.24509420187128841  0.24509422632551747  0.7549057850104643  1.0000
  F   F2        1.0  0.7549057991135433  0.7549057793807691  0.2450942128774203  1.0000
  F   F3        1.0  0.7549058027966844  0.2450942167794688  0.24509422118807356  1.0000
  F   F4        1.0  0.2450942242137094  0.7549057590837759  0.7549058168991472  1.0000
  F   F5        1.0  0.24509420806173546  0.7549057880712322  0.24509422712386636  1.0000
  F   F6        1.0  0.754905804392869  0.2450942133717626  0.7549057880465572  1.0000
