data_image0
_chemical_formula_structural       In2SF6
_chemical_formula_sum              "In2 S1 F6"
_cell_length_a       5.86300743365591
_cell_length_b       5.863006536237096
_cell_length_c       5.863007399069652
_cell_angle_alpha    59.99999744544311
_cell_angle_beta     59.99999984531624
_cell_angle_gamma    60.000000504027696

_space_group_name_H-M_alt    "P 1"
_space_group_IT_number       1

loop_
  _space_group_symop_operation_xyz
  'x, y, z'

loop_
  _atom_site_type_symbol
  _atom_site_label
  _atom_site_symmetry_multiplicity
  _atom_site_fract_x
  _atom_site_fract_y
  _atom_site_fract_z
  _atom_site_occupancy
  In  In1       1.0  0.25000005044706386  0.24999984224538743  0.25000006256032453  1.0000
  In  In2       1.0  0.7500000430544107  0.749999869321762  0.750000002307198  1.0000
  S   S1        1.0  0.9999999834079777  4.386766868647749e-08  0.9999999983014428  1.0000
  F   F1        1.0  0.23331304817702123  0.2333131119022131  0.7666869133481339  1.0000
  F   F2        1.0  0.766686903078843  0.7666869673177764  0.2333130661055296  1.0000
  F   F3        1.0  0.7666869737286127  0.2333130973661352  0.23331306119485914  1.0000
  F   F4        1.0  0.23331308017852131  0.76668696932024  0.7666868868448504  1.0000
  F   F5        1.0  0.23331309457525645  0.7666870026713912  0.2333130349767245  1.0000
  F   F6        1.0  0.7666868632648254  0.23331310997158494  0.7666869381182118  1.0000
