data_image0
_chemical_formula_structural       In2SeF6
_chemical_formula_sum              "In2 Se1 F6"
_cell_length_a       6.173409047307329
_cell_length_b       6.1734089594755925
_cell_length_c       6.173409422394099
_cell_angle_alpha    59.999998757168115
_cell_angle_beta     59.99999965031758
_cell_angle_gamma    60.00000023332915

_space_group_name_H-M_alt    "P 1"
_space_group_IT_number       1

loop_
  _space_group_symop_operation_xyz
  'x, y, z'

loop_
  _atom_site_type_symbol
  _atom_site_label
  _atom_site_symmetry_multiplicity
  _atom_site_fract_x
  _atom_site_fract_y
  _atom_site_fract_z
  _atom_site_occupancy
  In  In1       1.0  0.24999999221975067  0.24999999462496808  0.2500000037596496  1.0000
  In  In2       1.0  0.7499999725585166  0.7500000354564004  0.7499999778194664  1.0000
  Se  Se1       1.0  0.9999999974682576  1.983904253311824e-09  7.640688998605813e-08  1.0000
  F   F1        1.0  0.227458887882858  0.22745893203338877  0.772541127032578  1.0000
  F   F2        1.0  0.7725411172898444  0.7725410722572325  0.2274588958402075  1.0000
  F   F3        1.0  0.7725411303896955  0.22745889336918912  0.22745893595617836  1.0000
  F   F4        1.0  0.2274589300664511  0.7725410236296698  0.7725410332671969  1.0000
  F   F5        1.0  0.2274588830194218  0.7725411205804414  0.22745891837757173  1.0000
  F   F6        1.0  0.7725410768088196  0.22745890751702305  0.7725410601891071  1.0000
