data_image0
_chemical_formula_structural       In2SeI6
_chemical_formula_sum              "In2 Se1 I6"
_cell_length_a       7.921756235621936
_cell_length_b       7.921756187125206
_cell_length_c       7.9217559888652485
_cell_angle_alpha    60.0000012918705
_cell_angle_beta     60.00000110871498
_cell_angle_gamma    59.9999986466171

_space_group_name_H-M_alt    "P 1"
_space_group_IT_number       1

loop_
  _space_group_symop_operation_xyz
  'x, y, z'

loop_
  _atom_site_type_symbol
  _atom_site_label
  _atom_site_symmetry_multiplicity
  _atom_site_fract_x
  _atom_site_fract_y
  _atom_site_fract_z
  _atom_site_occupancy
  In  In1       1.0  0.24999999752430524  0.25000000463525457  0.24999999938524115  1.0000
  In  In2       1.0  0.7500000018340583  0.7500000123597114  0.7500000056592957  1.0000
  Se  Se1       1.0  3.557176780869025e-08  2.0098677866758167e-08  0.9999999683777381  1.0000
  I   I1        1.0  0.25917367570986394  0.2591736329167595  0.7408263405803691  1.0000
  I   I2        1.0  0.7408263273595467  0.7408263423347964  0.25917366706984607  1.0000
  I   I3        1.0  0.7408263800729094  0.2591736157105552  0.2591736183021356  1.0000
  I   I4        1.0  0.2591736179314137  0.7408263703633665  0.7408263902564797  1.0000
  I   I5        1.0  0.259173593641809  0.7408263896172538  0.2591736247058592  1.0000
  I   I6        1.0  0.7408263704832971  0.259173615009295  0.7408263852043191  1.0000
