data_image0
_chemical_formula_structural       In2SCl6
_chemical_formula_sum              "In2 S1 Cl6"
_cell_length_a       7.18575928834359
_cell_length_b       7.185759011811093
_cell_length_c       7.185758943275812
_cell_angle_alpha    59.999996481046054
_cell_angle_beta     59.999995447497426
_cell_angle_gamma    59.99999843818424

_space_group_name_H-M_alt    "P 1"
_space_group_IT_number       1

loop_
  _space_group_symop_operation_xyz
  'x, y, z'

loop_
  _atom_site_type_symbol
  _atom_site_label
  _atom_site_symmetry_multiplicity
  _atom_site_fract_x
  _atom_site_fract_y
  _atom_site_fract_z
  _atom_site_occupancy
  In  In1       1.0  0.2500000144200757  0.2500000424813058  0.2499999260327588  1.0000
  In  In2       1.0  0.7499999925208249  0.7500000916513928  0.7499999368704835  1.0000
  S   S1        1.0  0.9999998910045322  1.3635246668704178e-08  0.9999999252156676  1.0000
  Cl  Cl1       1.0  0.23423884696923755  0.2342390016063926  0.7657610575971111  1.0000
  Cl  Cl2       1.0  0.7657610645474032  0.7657610524192323  0.23423893621268996  1.0000
  Cl  Cl3       1.0  0.7657611734310481  0.23423889216797733  0.23423888162739676  1.0000
  Cl  Cl4       1.0  0.23423897130485144  0.7657609539201446  0.7657612595802882  1.0000
  Cl  Cl5       1.0  0.2342388123333851  0.7657610908163797  0.23423895959270083  1.0000
  Cl  Cl6       1.0  0.7657612256294108  0.23423884901405861  0.7657611477727784  1.0000
