data_image0
_chemical_formula_structural       In2SCl6
_chemical_formula_sum              "In2 S1 Cl6"
_cell_length_a       7.191272823760219
_cell_length_b       7.191273090788719
_cell_length_c       7.191272994834598
_cell_angle_alpha    59.99999911657133
_cell_angle_beta     59.99999705751205
_cell_angle_gamma    59.99999905537382

_space_group_name_H-M_alt    "P 1"
_space_group_IT_number       1

loop_
  _space_group_symop_operation_xyz
  'x, y, z'

loop_
  _atom_site_type_symbol
  _atom_site_label
  _atom_site_symmetry_multiplicity
  _atom_site_fract_x
  _atom_site_fract_y
  _atom_site_fract_z
  _atom_site_occupancy
  In  In1       1.0  0.25000009670736073  0.25000000554014556  0.25000002331299315  1.0000
  In  In2       1.0  0.749999773527367  0.7499999093252153  0.7500002219679033  1.0000
  S   S1        1.0  0.999999992280429  0.9999999557194299  1.289025753704861e-07  1.0000
  Cl  Cl1       1.0  0.23406085648602654  0.23406068326680868  0.7659391273451998  1.0000
  Cl  Cl2       1.0  0.765939286992705  0.7659392452233432  0.2340606435445919  1.0000
  Cl  Cl3       1.0  0.7659390704774716  0.23406095892130746  0.23406080418614855  1.0000
  Cl  Cl4       1.0  0.2340608839295903  0.7659392573925461  0.7659390897588507  1.0000
  Cl  Cl5       1.0  0.2340608552735016  0.7659392286893597  0.2340607649470604  1.0000
  Cl  Cl6       1.0  0.7659392059083575  0.2340607491906576  0.765939187874587  1.0000
