data_image0
_chemical_formula_structural       In2SnF6
_chemical_formula_sum              "In2 Sn1 F6"
_cell_length_a       6.141655335638826
_cell_length_b       6.141655579396009
_cell_length_c       6.14165547222975
_cell_angle_alpha    59.99999806007754
_cell_angle_beta     59.999999741460634
_cell_angle_gamma    59.99999921943609

_space_group_name_H-M_alt    "P 1"
_space_group_IT_number       1

loop_
  _space_group_symop_operation_xyz
  'x, y, z'

loop_
  _atom_site_type_symbol
  _atom_site_label
  _atom_site_symmetry_multiplicity
  _atom_site_fract_x
  _atom_site_fract_y
  _atom_site_fract_z
  _atom_site_occupancy
  In  In1       1.0  0.24999997052013215  0.250000027001953  0.2500000142995178  1.0000
  In  In2       1.0  0.7499999890458703  0.7499999613562119  0.7499999711717893  1.0000
  Sn  Sn1       1.0  0.999999998670559  3.988322539364183e-09  0.9999999693625004  1.0000
  F   F1        1.0  0.23118553445696907  0.23118556123149087  0.7688144596260796  1.0000
  F   F2        1.0  0.7688144518672393  0.7688144370974759  0.23118557749441979  1.0000
  F   F3        1.0  0.768814449863707  0.23118552891375557  0.23118556804316223  1.0000
  F   F4        1.0  0.23118558046229912  0.7688144953393014  0.7688144422555203  1.0000
  F   F5        1.0  0.23118557745520887  0.7688144458425276  0.23118550430877882  1.0000
  F   F6        1.0  0.7688144490160902  0.231185550492279  0.7688144876836476  1.0000
