data_image0
_chemical_formula_structural       In2SnCl6
_chemical_formula_sum              "In2 Sn1 Cl6"
_cell_length_a       7.250220137199389
_cell_length_b       7.250220108473471
_cell_length_c       7.250220225896017
_cell_angle_alpha    60.00000048852697
_cell_angle_beta     60.000001009313465
_cell_angle_gamma    60.000000717337564

_space_group_name_H-M_alt    "P 1"
_space_group_IT_number       1

loop_
  _space_group_symop_operation_xyz
  'x, y, z'

loop_
  _atom_site_type_symbol
  _atom_site_label
  _atom_site_symmetry_multiplicity
  _atom_site_fract_x
  _atom_site_fract_y
  _atom_site_fract_z
  _atom_site_occupancy
  In  In1       1.0  0.24999995263083502  0.24999998221708716  0.25000010436039954  1.0000
  In  In2       1.0  0.7499999915280962  0.7500000378708676  0.7500000378999253  1.0000
  Sn  Sn1       1.0  2.950389417055002e-08  1.1824763771381572e-08  0.9999999489917656  1.0000
  Cl  Cl1       1.0  0.24105428446863394  0.24105432173218716  0.7589456646673628  1.0000
  Cl  Cl2       1.0  0.7589456850124985  0.7589456510567111  0.24105428996673292  1.0000
  Cl  Cl3       1.0  0.7589456724817614  0.24105434424383462  0.24105425136025288  1.0000
  Cl  Cl4       1.0  0.24105432244849284  0.7589456859796313  0.7589457142442001  1.0000
  Cl  Cl5       1.0  0.2410543109871071  0.758945703004351  0.2410542636153801  1.0000
  Cl  Cl6       1.0  0.7589457513337374  0.24105427316305214  0.7589457132522991  1.0000
