data_image0
_chemical_formula_structural       In2SeBr6
_chemical_formula_sum              "In2 Se1 Br6"
_cell_length_a       7.590126884625839
_cell_length_b       7.590126920804268
_cell_length_c       7.590126885594985
_cell_angle_alpha    59.99999950031339
_cell_angle_beta     60.00000004326188
_cell_angle_gamma    60.000000493291445

_space_group_name_H-M_alt    "P 1"
_space_group_IT_number       1

loop_
  _space_group_symop_operation_xyz
  'x, y, z'

loop_
  _atom_site_type_symbol
  _atom_site_label
  _atom_site_symmetry_multiplicity
  _atom_site_fract_x
  _atom_site_fract_y
  _atom_site_fract_z
  _atom_site_occupancy
  In  In1       1.0  0.2500000068986354  0.250000016494493  0.24999999469556802  1.0000
  In  In2       1.0  0.7500000275352835  0.7499999833257714  0.7499999979358569  1.0000
  Se  Se1       1.0  5.638109149512417e-08  0.9999999951591935  0.9999998569722658  1.0000
  Br  Br1       1.0  0.2434837436105333  0.24348377211667413  0.7565162639997972  1.0000
  Br  Br2       1.0  0.7565162097320537  0.756516251907629  0.24348375971027647  1.0000
  Br  Br3       1.0  0.7565161777611886  0.2434837972467423  0.24348382482179368  1.0000
  Br  Br4       1.0  0.24348377272332697  0.756516217095945  0.756516217015633  1.0000
  Br  Br5       1.0  0.24348378711659321  0.7565162096913444  0.2434838243803176  1.0000
  Br  Br6       1.0  0.756516218612662  0.24348375301605876  0.7565162657174208  1.0000
