data_image0
_chemical_formula_structural       In2SeCl6
_chemical_formula_sum              "In2 Se1 Cl6"
_cell_length_a       7.1896368919015625
_cell_length_b       7.189636699175751
_cell_length_c       7.18963680351803
_cell_angle_alpha    60.00000028592714
_cell_angle_beta     60.00000214517657
_cell_angle_gamma    60.00000011496463

_space_group_name_H-M_alt    "P 1"
_space_group_IT_number       1

loop_
  _space_group_symop_operation_xyz
  'x, y, z'

loop_
  _atom_site_type_symbol
  _atom_site_label
  _atom_site_symmetry_multiplicity
  _atom_site_fract_x
  _atom_site_fract_y
  _atom_site_fract_z
  _atom_site_occupancy
  In  In1       1.0  0.2499999481792805  0.24999994978560386  0.250000120876762  1.0000
  In  In2       1.0  0.7500000750147066  0.7499999191997557  0.7499999148197443  1.0000
  Se  Se1       1.0  3.0676599208634854e-08  4.769762054612273e-08  0.9999998370236057  1.0000
  Cl  Cl1       1.0  0.23979926638664112  0.23979928143931437  0.7602007120550378  1.0000
  Cl  Cl2       1.0  0.7602007051349235  0.7602007425633125  0.23979927475082793  1.0000
  Cl  Cl3       1.0  0.7602007351570034  0.23979928293389344  0.23979931422350573  1.0000
  Cl  Cl4       1.0  0.2397992076335735  0.7602007598070849  0.7602008041497448  1.0000
  Cl  Cl5       1.0  0.23979926001146562  0.7602007535963763  0.23979926674081065  1.0000
  Cl  Cl6       1.0  0.7602007781213335  0.2397992584818457  0.7602007483572749  1.0000
