data_image0
_chemical_formula_structural       In2ScCl6
_chemical_formula_sum              "In2 Sc1 Cl6"
_cell_length_a       7.191746846416959
_cell_length_b       7.191746999590375
_cell_length_c       7.191746915078425
_cell_angle_alpha    59.99999864534357
_cell_angle_beta     59.99999824068703
_cell_angle_gamma    59.99999854173697

_space_group_name_H-M_alt    "P 1"
_space_group_IT_number       1

loop_
  _space_group_symop_operation_xyz
  'x, y, z'

loop_
  _atom_site_type_symbol
  _atom_site_label
  _atom_site_symmetry_multiplicity
  _atom_site_fract_x
  _atom_site_fract_y
  _atom_site_fract_z
  _atom_site_occupancy
  In  In1       1.0  0.2499999631535489  0.25000003321444375  0.24999998640358972  1.0000
  In  In2       1.0  0.7499999432911615  0.7499999429685612  0.7500000843284839  1.0000
  Sc  Sc1       1.0  0.9999999988980963  0.9999999455044282  4.03130832415176e-08  1.0000
  Cl  Cl1       1.0  0.24374331645167557  0.24374335888005788  0.7562566543669919  1.0000
  Cl  Cl2       1.0  0.7562568009738325  0.7562566394417711  0.2437432775575441  1.0000
  Cl  Cl3       1.0  0.7562566908227474  0.2437433321216694  0.2437433169194607  1.0000
  Cl  Cl4       1.0  0.24374327940589868  0.7562567513494916  0.7562566780099442  1.0000
  Cl  Cl5       1.0  0.24374328065408002  0.7562567314351782  0.24374327947098046  1.0000
  Cl  Cl6       1.0  0.756256726180425  0.2437432566687331  0.7562566502862935  1.0000
