data_image0
_chemical_formula_structural       In2SiBr6
_chemical_formula_sum              "In2 Si1 Br6"
_cell_length_a       7.509448465235169
_cell_length_b       7.509448376158806
_cell_length_c       7.509448584028557
_cell_angle_alpha    59.9999984551101
_cell_angle_beta     59.99999908949047
_cell_angle_gamma    59.999998894844964

_space_group_name_H-M_alt    "P 1"
_space_group_IT_number       1

loop_
  _space_group_symop_operation_xyz
  'x, y, z'

loop_
  _atom_site_type_symbol
  _atom_site_label
  _atom_site_symmetry_multiplicity
  _atom_site_fract_x
  _atom_site_fract_y
  _atom_site_fract_z
  _atom_site_occupancy
  In  In1       1.0  0.2500000150323654  0.2500000015018397  0.24999999487088523  1.0000
  In  In2       1.0  0.750000007929349  0.7499999914580108  0.7499999804238583  1.0000
  Si  Si1       1.0  0.9999999721807695  8.80706823506813e-08  0.9999999632159953  1.0000
  Br  Br1       1.0  0.22981118784583418  0.2298111516830731  0.7701888319287287  1.0000
  Br  Br2       1.0  0.7701887343922865  0.7701887744082964  0.22981124580523254  1.0000
  Br  Br3       1.0  0.7701887747022924  0.22981125116459264  0.2298111900521545  1.0000
  Br  Br4       1.0  0.2298112308627441  0.7701887939852923  0.7701886985998143  1.0000
  Br  Br5       1.0  0.22981125032465038  0.7701887742158999  0.2298112709580455  1.0000
  Br  Br6       1.0  0.7701888266578429  0.22981118123236302  0.7701888319109835  1.0000
