data_image0
_chemical_formula_structural       In2SnBr6
_chemical_formula_sum              "In2 Sn1 Br6"
_cell_length_a       7.540009766197685
_cell_length_b       7.540009759748886
_cell_length_c       7.540009963721885
_cell_angle_alpha    59.999999473009346
_cell_angle_beta     59.99999848132927
_cell_angle_gamma    60.00000024248247

_space_group_name_H-M_alt    "P 1"
_space_group_IT_number       1

loop_
  _space_group_symop_operation_xyz
  'x, y, z'

loop_
  _atom_site_type_symbol
  _atom_site_label
  _atom_site_symmetry_multiplicity
  _atom_site_fract_x
  _atom_site_fract_y
  _atom_site_fract_z
  _atom_site_occupancy
  In  In1       1.0  0.250000013576252  0.24999999164809006  0.2500000019090888  1.0000
  In  In2       1.0  0.7499999967498617  0.7500000058065008  0.7499999923917254  1.0000
  Sn  Sn1       1.0  0.9999999158323087  5.035416665559693e-08  7.65883816043638e-08  1.0000
  Br  Br1       1.0  0.24855244031314389  0.2485524263544386  0.7514475802275762  1.0000
  Br  Br2       1.0  0.751447625823911  0.7514476425705835  0.2485523835890067  1.0000
  Br  Br3       1.0  0.7514475545589764  0.24855241122677144  0.2485524082105972  1.0000
  Br  Br4       1.0  0.24855246382775745  0.7514475115087326  0.7514475226026021  1.0000
  Br  Br5       1.0  0.2485524439113245  0.7514475260398772  0.2485524696860249  1.0000
  Br  Br6       1.0  0.7514475472493591  0.24855243243084243  0.751447566952022  1.0000
