data_image0
_chemical_formula_structural       In2SiCl6
_chemical_formula_sum              "In2 Si1 Cl6"
_cell_length_a       7.272333374595821
_cell_length_b       7.272333121991774
_cell_length_c       7.272332775996746
_cell_angle_alpha    60.00000225648057
_cell_angle_beta     60.000001950102174
_cell_angle_gamma    60.00000078957418

_space_group_name_H-M_alt    "P 1"
_space_group_IT_number       1

loop_
  _space_group_symop_operation_xyz
  'x, y, z'

loop_
  _atom_site_type_symbol
  _atom_site_label
  _atom_site_symmetry_multiplicity
  _atom_site_fract_x
  _atom_site_fract_y
  _atom_site_fract_z
  _atom_site_occupancy
  In  In1       1.0  0.24999995919198986  0.2500001162705141  0.25000007512986844  1.0000
  In  In2       1.0  0.7499999849108309  0.749999993463182  0.7500000991327773  1.0000
  Si  Si1       1.0  0.9999999399525801  0.99999998484296  0.9999999344716362  1.0000
  Cl  Cl1       1.0  0.2149350192251992  0.21493515744894176  0.7850648859406323  1.0000
  Cl  Cl2       1.0  0.7850648669491607  0.7850648259760936  0.2149351095508801  1.0000
  Cl  Cl3       1.0  0.7850649608915452  0.2149350443666825  0.214935015455107  1.0000
  Cl  Cl4       1.0  0.21493500808774466  0.7850650097912018  0.7850649692710958  1.0000
  Cl  Cl5       1.0  0.21493514677499978  0.7850648976150767  0.21493501178567057  1.0000
  Cl  Cl6       1.0  0.7850650977467105  0.21493497297422462  0.7850649434545062  1.0000
