data_image0
_chemical_formula_structural       In2SF6
_chemical_formula_sum              "In2 S1 F6"
_cell_length_a       5.861431917737588
_cell_length_b       5.8614318496008275
_cell_length_c       5.861431781224605
_cell_angle_alpha    60.00000008678102
_cell_angle_beta     59.99999937740571
_cell_angle_gamma    59.99999983165755

_space_group_name_H-M_alt    "P 1"
_space_group_IT_number       1

loop_
  _space_group_symop_operation_xyz
  'x, y, z'

loop_
  _atom_site_type_symbol
  _atom_site_label
  _atom_site_symmetry_multiplicity
  _atom_site_fract_x
  _atom_site_fract_y
  _atom_site_fract_z
  _atom_site_occupancy
  In  In1       1.0  0.2500000057819059  0.24999999346670784  0.2500000209591098  1.0000
  In  In2       1.0  0.7499999903222515  0.7500000201005808  0.7499999780597154  1.0000
  S   S1        1.0  0.9999999884190155  0.9999999874630136  8.541990084447413e-08  1.0000
  F   F1        1.0  0.23335849298811226  0.23335849665299901  0.7666414934559261  1.0000
  F   F2        1.0  0.7666415461179897  0.7666415001983076  0.23335846000462895  1.0000
  F   F3        1.0  0.7666415869399812  0.23335841517277953  0.23335847858495642  1.0000
  F   F4        1.0  0.23335848999557768  0.7666414918301235  0.7666415333003602  1.0000
  F   F5        1.0  0.23335840355136583  0.7666415785901325  0.2333584742126287  1.0000
  F   F6        1.0  0.7666415163783878  0.233358503930582  0.7666414874710588  1.0000
