data_image0
_chemical_formula_structural       In2ScBr6
_chemical_formula_sum              "In2 Sc1 Br6"
_cell_length_a       7.5547551253493435
_cell_length_b       7.5547552222892245
_cell_length_c       7.554755216509988
_cell_angle_alpha    60.00000017615074
_cell_angle_beta     59.99999929740793
_cell_angle_gamma    59.999999567765414

_space_group_name_H-M_alt    "P 1"
_space_group_IT_number       1

loop_
  _space_group_symop_operation_xyz
  'x, y, z'

loop_
  _atom_site_type_symbol
  _atom_site_label
  _atom_site_symmetry_multiplicity
  _atom_site_fract_x
  _atom_site_fract_y
  _atom_site_fract_z
  _atom_site_occupancy
  In  In1       1.0  0.25000001933570526  0.2499999890626713  0.24999998647781502  1.0000
  In  In2       1.0  0.7499999848882287  0.750000007716954  0.7499999929361241  1.0000
  Sc  Sc1       1.0  0.9999999649994483  4.539241284689763e-08  1.2981837125929995e-07  1.0000
  Br  Br1       1.0  0.2468650931776864  0.2468650835287395  0.7531349237371007  1.0000
  Br  Br2       1.0  0.7531348791662099  0.7531348484045829  0.24686514110275817  1.0000
  Br  Br3       1.0  0.7531349672702824  0.24686506954652496  0.24686506422826568  1.0000
  Br  Br4       1.0  0.24686513031314777  0.753134867250269  0.7531348508452341  1.0000
  Br  Br5       1.0  0.24686506972203942  0.7531349436196191  0.24686507505662  1.0000
  Br  Br6       1.0  0.7531348888631495  0.24686514880830362  0.7531348356714455  1.0000
