data_image0
_chemical_formula_structural       In2TaCl6
_chemical_formula_sum              "In2 Ta1 Cl6"
_cell_length_a       7.266480920830235
_cell_length_b       7.266480331028185
_cell_length_c       7.266481081300347
_cell_angle_alpha    59.99999663822533
_cell_angle_beta     59.99999750739644
_cell_angle_gamma    59.999996521218165

_space_group_name_H-M_alt    "P 1"
_space_group_IT_number       1

loop_
  _space_group_symop_operation_xyz
  'x, y, z'

loop_
  _atom_site_type_symbol
  _atom_site_label
  _atom_site_symmetry_multiplicity
  _atom_site_fract_x
  _atom_site_fract_y
  _atom_site_fract_z
  _atom_site_occupancy
  In  In1       1.0  0.2500000875256964  0.24999997499020113  0.24999996129633564  1.0000
  In  In2       1.0  0.7499999704097426  0.7500000244134526  0.7499999912607153  1.0000
  Ta  Ta1       1.0  7.433417499882429e-08  0.9999999629196152  0.9999999290781904  1.0000
  Cl  Cl1       1.0  0.23221773629579162  0.2322176639819439  0.767782293931707  1.0000
  Cl  Cl2       1.0  0.7677823427796315  0.7677823101396299  0.2322177006056676  1.0000
  Cl  Cl3       1.0  0.7677822814549587  0.23221763145465651  0.2322177204178897  1.0000
  Cl  Cl4       1.0  0.23221757213108238  0.7677823898601341  0.7677824045530285  1.0000
  Cl  Cl5       1.0  0.2322176292938853  0.7677823994515645  0.23221760516903658  1.0000
  Cl  Cl6       1.0  0.7677823307603898  0.23221762186322573  0.7677824005110305  1.0000
