data_image0
_chemical_formula_structural       In2TiBr6
_chemical_formula_sum              "In2 Ti1 Br6"
_cell_length_a       7.525341297157597
_cell_length_b       7.525341349409185
_cell_length_c       7.525341225085822
_cell_angle_alpha    60.000000369391664
_cell_angle_beta     60.00000056880638
_cell_angle_gamma    59.999999737254306

_space_group_name_H-M_alt    "P 1"
_space_group_IT_number       1

loop_
  _space_group_symop_operation_xyz
  'x, y, z'

loop_
  _atom_site_type_symbol
  _atom_site_label
  _atom_site_symmetry_multiplicity
  _atom_site_fract_x
  _atom_site_fract_y
  _atom_site_fract_z
  _atom_site_occupancy
  In  In1       1.0  0.2500000090119368  0.24999999285309918  0.25000000152875  1.0000
  In  In2       1.0  0.7500000122181769  0.7500000045992034  0.7499999883443667  1.0000
  Ti  Ti1       1.0  0.9999999599030537  3.743236488032351e-08  0.9999999521650849  1.0000
  Br  Br1       1.0  0.23787552927749872  0.2378755526004307  0.7621244492179374  1.0000
  Br  Br2       1.0  0.7621244474385767  0.762124472519272  0.23787551585741315  1.0000
  Br  Br3       1.0  0.7621244706247929  0.23787551203887097  0.23787550991671  1.0000
  Br  Br4       1.0  0.23787552597755385  0.7621244626285142  0.7621245103069657  1.0000
  Br  Br5       1.0  0.23787555057051693  0.762124472317733  0.23787551601002382  1.0000
  Br  Br6       1.0  0.7621244943273855  0.23787549095719276  0.7621245615061775  1.0000
