data_image0
_chemical_formula_structural       In2TiI6
_chemical_formula_sum              "In2 Ti1 I6"
_cell_length_a       8.004510244812653
_cell_length_b       8.004510355638875
_cell_length_c       8.004510259687752
_cell_angle_alpha    60.00000029820304
_cell_angle_beta     59.99999996633125
_cell_angle_gamma    59.99999962021249

_space_group_name_H-M_alt    "P 1"
_space_group_IT_number       1

loop_
  _space_group_symop_operation_xyz
  'x, y, z'

loop_
  _atom_site_type_symbol
  _atom_site_label
  _atom_site_symmetry_multiplicity
  _atom_site_fract_x
  _atom_site_fract_y
  _atom_site_fract_z
  _atom_site_occupancy
  In  In1       1.0  0.24999999620866203  0.25000000978620546  0.24999999563953013  1.0000
  In  In2       1.0  0.7499999988264426  0.7499999987572473  0.7499999983683423  1.0000
  Ti  Ti1       1.0  0.9999999833742863  0.9999999892895212  0.9999999599483825  1.0000
  I   I1        1.0  0.24212959790912383  0.24212960953205345  0.7578703774499351  1.0000
  I   I2        1.0  0.757870430567434  0.7578703852407832  0.24212958673378804  1.0000
  I   I3        1.0  0.7578704039104696  0.2421296207490207  0.2421295805013631  1.0000
  I   I4        1.0  0.24212957395887094  0.7578704306363486  0.7578704493909639  1.0000
  I   I5        1.0  0.24212959001291834  0.7578703777130228  0.2421296134736921  1.0000
  I   I6        1.0  0.7578704252480872  0.24212957880810293  0.7578704401577417  1.0000
