data_image0
_chemical_formula_structural       In2TeI6
_chemical_formula_sum              "In2 Te1 I6"
_cell_length_a       8.092677602072412
_cell_length_b       8.092677536740151
_cell_length_c       8.092677607018297
_cell_angle_alpha    60.00000001403804
_cell_angle_beta     59.9999996345007
_cell_angle_gamma    60.000000129376104

_space_group_name_H-M_alt    "P 1"
_space_group_IT_number       1

loop_
  _space_group_symop_operation_xyz
  'x, y, z'

loop_
  _atom_site_type_symbol
  _atom_site_label
  _atom_site_symmetry_multiplicity
  _atom_site_fract_x
  _atom_site_fract_y
  _atom_site_fract_z
  _atom_site_occupancy
  In  In1       1.0  0.2499999981486646  0.2500000038393991  0.24999999848926333  1.0000
  In  In2       1.0  0.7500000023443487  0.749999996384209  0.7500000052640313  1.0000
  Te  Te1       1.0  1.0665494387819129e-08  0.9999999894062082  0.9999999937857239  1.0000
  I   I1        1.0  0.2594405372782516  0.2594405366705261  0.7405594670148885  1.0000
  I   I2        1.0  0.7405594612834492  0.7405594650664807  0.25944053571167813  1.0000
  I   I3        1.0  0.7405594579808016  0.25944054785662646  0.2594405416807855  1.0000
  I   I4        1.0  0.25944054150327917  0.7405594553937793  0.7405594622992617  1.0000
  I   I5        1.0  0.25944054485664364  0.740559454636087  0.2594405533825969  1.0000
  I   I6        1.0  0.7405594498424326  0.2594405501277177  0.7405594411120886  1.0000
