data_image0
_chemical_formula_structural       In2TaBr6
_chemical_formula_sum              "In2 Ta1 Br6"
_cell_length_a       7.602396755232705
_cell_length_b       7.602396863880593
_cell_length_c       7.602397025559383
_cell_angle_alpha    60.0000005397617
_cell_angle_beta     59.99999845311754
_cell_angle_gamma    60.00000223225104

_space_group_name_H-M_alt    "P 1"
_space_group_IT_number       1

loop_
  _space_group_symop_operation_xyz
  'x, y, z'

loop_
  _atom_site_type_symbol
  _atom_site_label
  _atom_site_symmetry_multiplicity
  _atom_site_fract_x
  _atom_site_fract_y
  _atom_site_fract_z
  _atom_site_occupancy
  In  In1       1.0  0.2500000043102566  0.2500000136146727  0.24999998705913237  1.0000
  In  In2       1.0  0.749999990716425  0.7499999844590773  0.7500000228384077  1.0000
  Ta  Ta1       1.0  0.9999999173364128  3.3830961962895267e-08  0.9999999796935766  1.0000
  Br  Br1       1.0  0.23689941064514905  0.23689949557835427  0.7631005477193136  1.0000
  Br  Br2       1.0  0.7631006388000346  0.76310048960741  0.23689940458247907  1.0000
  Br  Br3       1.0  0.7631004729464773  0.23689957583038684  0.23689948136449532  1.0000
  Br  Br4       1.0  0.23689949759411424  0.7631004319093525  0.7631005412045938  1.0000
  Br  Br5       1.0  0.2368995848327033  0.7631004221451647  0.2368995534047974  1.0000
  Br  Br6       1.0  0.7631004885615703  0.2368995549856098  0.7631004738185454  1.0000
