data_image0
_chemical_formula_structural       In2TiBr6
_chemical_formula_sum              "In2 Ti1 Br6"
_cell_length_a       7.522902437834727
_cell_length_b       7.522902407748454
_cell_length_c       7.522902239750038
_cell_angle_alpha    60.00000174070764
_cell_angle_beta     60.00000053102338
_cell_angle_gamma    60.000000630015805

_space_group_name_H-M_alt    "P 1"
_space_group_IT_number       1

loop_
  _space_group_symop_operation_xyz
  'x, y, z'

loop_
  _atom_site_type_symbol
  _atom_site_label
  _atom_site_symmetry_multiplicity
  _atom_site_fract_x
  _atom_site_fract_y
  _atom_site_fract_z
  _atom_site_occupancy
  In  In1       1.0  0.24999999631912734  0.25000001524313675  0.24999999548622864  1.0000
  In  In2       1.0  0.7500000017182061  0.7499999936327151  0.7500000021387984  1.0000
  Ti  Ti1       1.0  0.9999999863719937  0.9999999902318697  1.0368793996815878e-08  1.0000
  Br  Br1       1.0  0.2379563450929778  0.2379564232491816  0.7620436157233665  1.0000
  Br  Br2       1.0  0.7620436355336071  0.7620435595783229  0.2379564129361279  1.0000
  Br  Br3       1.0  0.7620436644697021  0.23795638093081645  0.23795635396132586  1.0000
  Br  Br4       1.0  0.2379563487305513  0.7620436377131659  0.7620436285396276  1.0000
  Br  Br5       1.0  0.2379563721620278  0.7620436050385254  0.23795640799862325  1.0000
  Br  Br6       1.0  0.7620436340925477  0.23795640220930472  0.7620435836732452  1.0000
