data_image0
_chemical_formula_structural       In2TiI6
_chemical_formula_sum              "In2 Ti1 I6"
_cell_length_a       8.00203870142099
_cell_length_b       8.002038709806717
_cell_length_c       8.00203886316929
_cell_angle_alpha    59.999999579520015
_cell_angle_beta     60.00000001830009
_cell_angle_gamma    60.00000029990777

_space_group_name_H-M_alt    "P 1"
_space_group_IT_number       1

loop_
  _space_group_symop_operation_xyz
  'x, y, z'

loop_
  _atom_site_type_symbol
  _atom_site_label
  _atom_site_symmetry_multiplicity
  _atom_site_fract_x
  _atom_site_fract_y
  _atom_site_fract_z
  _atom_site_occupancy
  In  In1       1.0  0.25000000069205847  0.25000000785630233  0.2500000034775042  1.0000
  In  In2       1.0  0.7499999992927107  0.749999992958086  0.7499999958876178  1.0000
  Ti  Ti1       1.0  0.9999999851172375  4.8977313580791526e-08  6.043297799477187e-08  1.0000
  I   I1        1.0  0.24215708662755978  0.24215710824858316  0.7578428838188985  1.0000
  I   I2        1.0  0.757842897411607  0.7578428711382303  0.24215711673727067  1.0000
  I   I3        1.0  0.7578428809093622  0.24215713564561497  0.2421570689574826  1.0000
  I   I4        1.0  0.24215713843222308  0.7578428590466093  0.7578428725533713  1.0000
  I   I5        1.0  0.2421571217727985  0.757842837709509  0.24215710564610987  1.0000
  I   I6        1.0  0.7578428901936993  0.24215714014676368  0.7578428967078424  1.0000
