data_image0
_chemical_formula_structural       In2TeBr6
_chemical_formula_sum              "In2 Te1 Br6"
_cell_length_a       7.636058425411729
_cell_length_b       7.6360583470056556
_cell_length_c       7.636058240651935
_cell_angle_alpha    60.000000597372285
_cell_angle_beta     60.00000066170126
_cell_angle_gamma    59.999998142785444

_space_group_name_H-M_alt    "P 1"
_space_group_IT_number       1

loop_
  _space_group_symop_operation_xyz
  'x, y, z'

loop_
  _atom_site_type_symbol
  _atom_site_label
  _atom_site_symmetry_multiplicity
  _atom_site_fract_x
  _atom_site_fract_y
  _atom_site_fract_z
  _atom_site_occupancy
  In  In1       1.0  0.2499999936437597  0.2500000018426136  0.24999998911450452  1.0000
  In  In2       1.0  0.7500000110829164  0.7500000103395303  0.7500000061736259  1.0000
  Te  Te1       1.0  0.9999999772257476  4.81169012182008e-09  0.999999764090535  1.0000
  Br  Br1       1.0  0.25269723685247064  0.25269722616807594  0.7473027893536689  1.0000
  Br  Br2       1.0  0.7473027794526582  0.7473027603517206  0.25269725095411794  1.0000
  Br  Br3       1.0  0.7473028004527188  0.25269720748561403  0.2526972129552732  1.0000
  Br  Br4       1.0  0.25269709133301244  0.7473029121576114  0.7473028806718505  1.0000
  Br  Br5       1.0  0.25269719392769635  0.747302792443894  0.252697222148667  1.0000
  Br  Br6       1.0  0.7473029146826535  0.25269708501092525  0.7473028867795024  1.0000
