data_image0
_chemical_formula_structural       In2TaI6
_chemical_formula_sum              "In2 Ta1 I6"
_cell_length_a       8.058962489869735
_cell_length_b       8.058962585233186
_cell_length_c       8.058963033427993
_cell_angle_alpha    59.999997817380525
_cell_angle_beta     59.99999686522319
_cell_angle_gamma    60.000002003545255

_space_group_name_H-M_alt    "P 1"
_space_group_IT_number       1

loop_
  _space_group_symop_operation_xyz
  'x, y, z'

loop_
  _atom_site_type_symbol
  _atom_site_label
  _atom_site_symmetry_multiplicity
  _atom_site_fract_x
  _atom_site_fract_y
  _atom_site_fract_z
  _atom_site_occupancy
  In  In1       1.0  0.25000000831526586  0.24999998382856037  0.25000001066664357  1.0000
  In  In2       1.0  0.7500000029891717  0.7500000259524598  0.7499999710009304  1.0000
  Ta  Ta1       1.0  0.9999999420938914  6.078918483653295e-09  1.4379476646928515e-07  1.0000
  I   I1        1.0  0.243838429647589  0.2438384591526675  0.7561615702493464  1.0000
  I   I2        1.0  0.7561616039734925  0.7561615825426877  0.24383840043384541  1.0000
  I   I3        1.0  0.7561614620905686  0.24383855057310877  0.2438385456538683  1.0000
  I   I4        1.0  0.24383860363358448  0.7561613604254509  0.7561613887072297  1.0000
  I   I5        1.0  0.24383854724243714  0.7561614275357617  0.24383859282558265  1.0000
  I   I6        1.0  0.7561613967047656  0.24383860808066946  0.7561613760998338  1.0000
