data_image0
_chemical_formula_structural       In2TeF6
_chemical_formula_sum              "In2 Te1 F6"
_cell_length_a       6.285215650271042
_cell_length_b       6.285215093781057
_cell_length_c       6.285215510076933
_cell_angle_alpha    59.99999917331684
_cell_angle_beta     59.999999109629805
_cell_angle_gamma    60.0000003970957

_space_group_name_H-M_alt    "P 1"
_space_group_IT_number       1

loop_
  _space_group_symop_operation_xyz
  'x, y, z'

loop_
  _atom_site_type_symbol
  _atom_site_label
  _atom_site_symmetry_multiplicity
  _atom_site_fract_x
  _atom_site_fract_y
  _atom_site_fract_z
  _atom_site_occupancy
  In  In1       1.0  0.25000002430054713  0.24999997177150332  0.25000004362168404  1.0000
  In  In2       1.0  0.7499999983927663  0.7500000010534535  0.7499998786395419  1.0000
  Te  Te1       1.0  8.724233437741721e-10  0.9999999863597125  1.4339108610657853e-08  1.0000
  F   F1        1.0  0.23675037757752723  0.23675031342576525  0.7632497081091333  1.0000
  F   F2        1.0  0.7632496448737752  0.7632497042172832  0.23675036528690477  1.0000
  F   F3        1.0  0.7632496820267314  0.23675029102009426  0.23675036179603387  1.0000
  F   F4        1.0  0.23675036696328627  0.7632496194492645  0.7632496707746877  1.0000
  F   F5        1.0  0.2367502701844005  0.7632497152405738  0.2367503325115967  1.0000
  F   F6        1.0  0.7632496351688006  0.23675040567893216  0.7632496109662266  1.0000
