data_image0
_chemical_formula_structural       In2TiCl6
_chemical_formula_sum              "In2 Ti1 Cl6"
_cell_length_a       7.202415150660525
_cell_length_b       7.202414914768714
_cell_length_c       7.202414705735955
_cell_angle_alpha    59.999999460449146
_cell_angle_beta     60.000000419521214
_cell_angle_gamma    60.000000176100336

_space_group_name_H-M_alt    "P 1"
_space_group_IT_number       1

loop_
  _space_group_symop_operation_xyz
  'x, y, z'

loop_
  _atom_site_type_symbol
  _atom_site_label
  _atom_site_symmetry_multiplicity
  _atom_site_fract_x
  _atom_site_fract_y
  _atom_site_fract_z
  _atom_site_occupancy
  In  In1       1.0  0.2499999788305095  0.24999992959378767  0.2500000603144142  1.0000
  In  In2       1.0  0.750000029813965  0.7500000234454263  0.7499999197603617  1.0000
  Ti  Ti1       1.0  1.6485014680562686e-08  3.230882083411552e-08  0.9999999172893054  1.0000
  Cl  Cl1       1.0  0.2322818982565759  0.23228190481137992  0.7677181282853026  1.0000
  Cl  Cl2       1.0  0.7677180431168329  0.7677181009422231  0.2322819368195134  1.0000
  Cl  Cl3       1.0  0.7677181323903197  0.2322818962851527  0.23228189647423192  1.0000
  Cl  Cl4       1.0  0.23228190349208822  0.7677180856619527  0.7677181193951  1.0000
  Cl  Cl5       1.0  0.2322819235131418  0.7677180999809433  0.23228190928706705  1.0000
  Cl  Cl6       1.0  0.767718077632031  0.23228193808148068  0.76771809033953  1.0000
