data_image0
_chemical_formula_structural       In2TaF6
_chemical_formula_sum              "In2 Ta1 F6"
_cell_length_a       6.556356812643761
_cell_length_b       6.556356324796585
_cell_length_c       6.556356348998986
_cell_angle_alpha    59.99999677090423
_cell_angle_beta     59.99999728139999
_cell_angle_gamma    59.999997345131554

_space_group_name_H-M_alt    "P 1"
_space_group_IT_number       1

loop_
  _space_group_symop_operation_xyz
  'x, y, z'

loop_
  _atom_site_type_symbol
  _atom_site_label
  _atom_site_symmetry_multiplicity
  _atom_site_fract_x
  _atom_site_fract_y
  _atom_site_fract_z
  _atom_site_occupancy
  In  In1       1.0  0.24999994500209557  0.24999997003879298  0.25000007364912685  1.0000
  In  In2       1.0  0.7499999298053573  0.750000080106818  0.7500000107655102  1.0000
  Ta  Ta1       1.0  6.29237488735583e-08  0.9999999327510375  0.999999932001685  1.0000
  F   F1        1.0  0.20742906156211904  0.20742907530576063  0.7925709295957732  1.0000
  F   F2        1.0  0.7925709916782695  0.7925709150629953  0.2074290436327461  1.0000
  F   F3        1.0  0.7925708738227957  0.20742910670353246  0.20742904234925721  1.0000
  F   F4        1.0  0.2074290865535791  0.7925709509141877  0.7925708887782418  1.0000
  F   F5        1.0  0.20742911213244755  0.7925708949593129  0.20742901786578366  1.0000
  F   F6        1.0  0.7925708750006447  0.20742911408971068  0.7925709668743527  1.0000
