data_image0
_chemical_formula_structural       In2TiCl6
_chemical_formula_sum              "In2 Ti1 Cl6"
_cell_length_a       7.196062385118524
_cell_length_b       7.196062295574382
_cell_length_c       7.196062385826374
_cell_angle_alpha    60.00000003061173
_cell_angle_beta     60.0000006754515
_cell_angle_gamma    60.00000082530448

_space_group_name_H-M_alt    "P 1"
_space_group_IT_number       1

loop_
  _space_group_symop_operation_xyz
  'x, y, z'

loop_
  _atom_site_type_symbol
  _atom_site_label
  _atom_site_symmetry_multiplicity
  _atom_site_fract_x
  _atom_site_fract_y
  _atom_site_fract_z
  _atom_site_occupancy
  In  In1       1.0  0.25000000304810965  0.24999999748685386  0.24999999311382637  1.0000
  In  In2       1.0  0.7500000345096705  0.7500000367116609  0.7499999848330762  1.0000
  Ti  Ti1       1.0  3.9306475308993864e-08  0.999999930219421  1.5237051825328647e-08  1.0000
  Cl  Cl1       1.0  0.23253339307765503  0.23253334085154673  0.7674666592150508  1.0000
  Cl  Cl2       1.0  0.7674666413209694  0.7674666065467352  0.23253337760803444  1.0000
  Cl  Cl3       1.0  0.7674666183179227  0.2325333643857101  0.23253343753344222  1.0000
  Cl  Cl4       1.0  0.23253332720872308  0.767466671514769  0.7674665827987472  1.0000
  Cl  Cl5       1.0  0.23253334581030874  0.7674666480596121  0.232533403214501  1.0000
  Cl  Cl6       1.0  0.7674665986790301  0.23253338613890173  0.7674665476152318  1.0000
