data_image0
_chemical_formula_structural       In2VBr6
_chemical_formula_sum              "In2 V1 Br6"
_cell_length_a       7.4522235591998784
_cell_length_b       7.452223714787974
_cell_length_c       7.452223481305385
_cell_angle_alpha    59.99999805758982
_cell_angle_beta     59.9999977201085
_cell_angle_gamma    59.99999898885904

_space_group_name_H-M_alt    "P 1"
_space_group_IT_number       1

loop_
  _space_group_symop_operation_xyz
  'x, y, z'

loop_
  _atom_site_type_symbol
  _atom_site_label
  _atom_site_symmetry_multiplicity
  _atom_site_fract_x
  _atom_site_fract_y
  _atom_site_fract_z
  _atom_site_occupancy
  In  In1       1.0  0.2499999689159549  0.24999991892600157  0.25000005479565823  1.0000
  In  In2       1.0  0.7500000015581758  0.7500000394535247  0.7499999702765254  1.0000
  V   V1        1.0  2.236896608451913e-09  7.231234312338673e-08  0.9999999291783437  1.0000
  Br  Br1       1.0  0.23544735840703984  0.2354473850205825  0.7645526476598486  1.0000
  Br  Br2       1.0  0.76455257132701  0.7645525700720187  0.23544742223782253  1.0000
  Br  Br3       1.0  0.7645526104383471  0.23544743402772905  0.2354473715801483  1.0000
  Br  Br4       1.0  0.23544743318851527  0.7645525884468274  0.7645526049963725  1.0000
  Br  Br5       1.0  0.23544742657930176  0.7645525944905036  0.2354473764985737  1.0000
  Br  Br6       1.0  0.7645526438585261  0.2354474033321178  0.7645526110753644  1.0000
