data_image0
_chemical_formula_structural       In2VI6
_chemical_formula_sum              "In2 V1 I6"
_cell_length_a       7.904151544810626
_cell_length_b       7.904151534759623
_cell_length_c       7.904151469601041
_cell_angle_alpha    59.999999773835945
_cell_angle_beta     60.00000015388251
_cell_angle_gamma    59.999999822453

_space_group_name_H-M_alt    "P 1"
_space_group_IT_number       1

loop_
  _space_group_symop_operation_xyz
  'x, y, z'

loop_
  _atom_site_type_symbol
  _atom_site_label
  _atom_site_symmetry_multiplicity
  _atom_site_fract_x
  _atom_site_fract_y
  _atom_site_fract_z
  _atom_site_occupancy
  In  In1       1.0  0.24999999499234532  0.24999999252525432  0.25000000438736686  1.0000
  In  In2       1.0  0.7500000083358881  0.7500000039171898  0.7499999895771189  1.0000
  V   V1        1.0  1.8887599498607615e-09  3.0989913571831743e-09  2.5667560971900074e-09  1.0000
  I   I1        1.0  0.24020557648018434  0.24020556421018224  0.7597944285076343  1.0000
  I   I2        1.0  0.7597944175662793  0.7597944337817574  0.2402055769139363  1.0000
  I   I3        1.0  0.759794437621404  0.2402055713125276  0.2402055670028747  1.0000
  I   I4        1.0  0.2402055700894652  0.7597944251299162  0.7597944361567149  1.0000
  I   I5        1.0  0.24020555527158627  0.7597944370494006  0.24020557904279366  1.0000
  I   I6        1.0  0.7597944371367646  0.24020557023951314  0.7597944162235565  1.0000
