data_image0
_chemical_formula_structural       In2VBr6
_chemical_formula_sum              "In2 V1 Br6"
_cell_length_a       7.450723677106374
_cell_length_b       7.45072372118297
_cell_length_c       7.4507237320221815
_cell_angle_alpha    59.99999856005957
_cell_angle_beta     59.99999937072307
_cell_angle_gamma    59.99999945256

_space_group_name_H-M_alt    "P 1"
_space_group_IT_number       1

loop_
  _space_group_symop_operation_xyz
  'x, y, z'

loop_
  _atom_site_type_symbol
  _atom_site_label
  _atom_site_symmetry_multiplicity
  _atom_site_fract_x
  _atom_site_fract_y
  _atom_site_fract_z
  _atom_site_occupancy
  In  In1       1.0  0.249999992839111  0.24999997206405294  0.25000002009445305  1.0000
  In  In2       1.0  0.7500000071788715  0.7500000115321637  0.7499999875453741  1.0000
  V   V1        1.0  0.9999999706481317  0.999999995068619  1.1511868394035523e-07  1.0000
  Br  Br1       1.0  0.23548820150069824  0.2354882150713327  0.7645118070696737  1.0000
  Br  Br2       1.0  0.7645118502536781  0.7645118457831637  0.23548814412572447  1.0000
  Br  Br3       1.0  0.7645117929949228  0.23548821500500638  0.23548818909983354  1.0000
  Br  Br4       1.0  0.23548819744233088  0.7645117833853495  0.7645117676158344  1.0000
  Br  Br5       1.0  0.23548820025927797  0.7645117810989559  0.23548819705502916  1.0000
  Br  Br6       1.0  0.7645117839949729  0.2354881893469159  0.7645117820929885  1.0000
