data_image0
_chemical_formula_structural       In2VI6
_chemical_formula_sum              "In2 V1 I6"
_cell_length_a       7.9112823925929465
_cell_length_b       7.911282415012608
_cell_length_c       7.911282428046727
_cell_angle_alpha    59.999999790365045
_cell_angle_beta     60.00000007023798
_cell_angle_gamma    60.00000009278757

_space_group_name_H-M_alt    "P 1"
_space_group_IT_number       1

loop_
  _space_group_symop_operation_xyz
  'x, y, z'

loop_
  _atom_site_type_symbol
  _atom_site_label
  _atom_site_symmetry_multiplicity
  _atom_site_fract_x
  _atom_site_fract_y
  _atom_site_fract_z
  _atom_site_occupancy
  In  In1       1.0  0.25000000793193083  0.24999999320476876  0.24999999904277645  1.0000
  In  In2       1.0  0.7499999847113926  0.7500000136724853  0.7499999971134046  1.0000
  V   V1        1.0  0.9999999920242744  0.9999999845190094  6.734513127299427e-08  1.0000
  I   I1        1.0  0.23994211522978445  0.2399420992351127  0.7600578880732497  1.0000
  I   I2        1.0  0.7600578930412226  0.7600579045459432  0.23994209676111844  1.0000
  I   I3        1.0  0.7600579282100699  0.23994208214969728  0.23994208523899377  1.0000
  I   I4        1.0  0.23994209381675377  0.7600578891212789  0.7600579001243829  1.0000
  I   I5        1.0  0.2399420677348674  0.7600579245235578  0.2399420763888297  1.0000
  I   I6        1.0  0.7600579168290021  0.23994209783468665  0.7600578945782842  1.0000
