data_image0
_chemical_formula_structural       In2VF6
_chemical_formula_sum              "In2 V1 F6"
_cell_length_a       5.926161853017755
_cell_length_b       5.92616217966601
_cell_length_c       5.926161708750817
_cell_angle_alpha    60.000001356307976
_cell_angle_beta     60.000001317176135
_cell_angle_gamma    60.00000090982536

_space_group_name_H-M_alt    "P 1"
_space_group_IT_number       1

loop_
  _space_group_symop_operation_xyz
  'x, y, z'

loop_
  _atom_site_type_symbol
  _atom_site_label
  _atom_site_symmetry_multiplicity
  _atom_site_fract_x
  _atom_site_fract_y
  _atom_site_fract_z
  _atom_site_occupancy
  In  In1       1.0  0.24999996530468244  0.25000003882131655  0.2500000041990656  1.0000
  In  In2       1.0  0.7499999509645342  0.7500000565303869  0.7500000437250941  1.0000
  V   V1        1.0  0.9999999853374452  0.9999999855332782  2.6376668407760405e-08  1.0000
  F   F1        1.0  0.22913763796187062  0.2291375816984719  0.7708624312495624  1.0000
  F   F2        1.0  0.7708623772105007  0.7708623338525457  0.22913764531133493  1.0000
  F   F3        1.0  0.770862402009471  0.22913766120534704  0.22913761886114992  1.0000
  F   F4        1.0  0.22913767488271297  0.7708623556127238  0.7708622867723721  1.0000
  F   F5        1.0  0.2291376419538771  0.7708623934075589  0.22913760185906357  1.0000
  F   F6        1.0  0.7708623404860054  0.22913763787723546  0.7708623015814257  1.0000
