data_image0
_chemical_formula_structural       In2VF6
_chemical_formula_sum              "In2 V1 F6"
_cell_length_a       5.926099498876906
_cell_length_b       5.92609903753239
_cell_length_c       5.926099545617446
_cell_angle_alpha    60.000000389850975
_cell_angle_beta     60.000000436476356
_cell_angle_gamma    59.99999943032111

_space_group_name_H-M_alt    "P 1"
_space_group_IT_number       1

loop_
  _space_group_symop_operation_xyz
  'x, y, z'

loop_
  _atom_site_type_symbol
  _atom_site_label
  _atom_site_symmetry_multiplicity
  _atom_site_fract_x
  _atom_site_fract_y
  _atom_site_fract_z
  _atom_site_occupancy
  In  In1       1.0  0.24999994637856002  0.25000003569426243  0.24999998890316846  1.0000
  In  In2       1.0  0.7499999576801553  0.750000055415374  0.7499999687074355  1.0000
  V   V1        1.0  1.5037578252520086e-08  0.9999999607327655  4.080148675197391e-08  1.0000
  F   F1        1.0  0.2291441835647589  0.22914417803041015  0.7708558385484545  1.0000
  F   F2        1.0  0.7708558279586935  0.7708557952775228  0.22914419847845488  1.0000
  F   F3        1.0  0.7708558443128318  0.2291441426701317  0.229144227580368  1.0000
  F   F4        1.0  0.2291441864795087  0.7708558079041377  0.7708557808048188  1.0000
  F   F5        1.0  0.2291442242078038  0.7708558060544399  0.22914414541993056  1.0000
  F   F6        1.0  0.7708558142197803  0.22914422098760262  0.7708557821023867  1.0000
