data_image0
_chemical_formula_structural       In2VCl6
_chemical_formula_sum              "In2 V1 Cl6"
_cell_length_a       7.101753835303618
_cell_length_b       7.101753952045971
_cell_length_c       7.101753968562269
_cell_angle_alpha    60.00000117354802
_cell_angle_beta     60.000000741465115
_cell_angle_gamma    60.00000102300908

_space_group_name_H-M_alt    "P 1"
_space_group_IT_number       1

loop_
  _space_group_symop_operation_xyz
  'x, y, z'

loop_
  _atom_site_type_symbol
  _atom_site_label
  _atom_site_symmetry_multiplicity
  _atom_site_fract_x
  _atom_site_fract_y
  _atom_site_fract_z
  _atom_site_occupancy
  In  In1       1.0  0.24999991804574195  0.2500001742852825  0.24999997224898327  1.0000
  In  In2       1.0  0.7500000568830474  0.7499999658207944  0.7499998284518273  1.0000
  V   V1        1.0  5.368976908859529e-08  0.9999999413647312  0.9999999771268986  1.0000
  Cl  Cl1       1.0  0.23130306812881013  0.23130299377057387  0.7686969456578174  1.0000
  Cl  Cl2       1.0  0.7686968867506256  0.7686969186926971  0.23130313378038414  1.0000
  Cl  Cl3       1.0  0.7686969079751226  0.23130307264765412  0.23130307998843405  1.0000
  Cl  Cl4       1.0  0.2313030313972333  0.7686970277933901  0.7686969681304335  1.0000
  Cl  Cl5       1.0  0.23130306786461774  0.7686969401623726  0.2313030390787258  1.0000
  Cl  Cl6       1.0  0.7686970168925304  0.23130298264829913  0.7686970237548288  1.0000
