data_image0
_chemical_formula_structural       In2VCl6
_chemical_formula_sum              "In2 V1 Cl6"
_cell_length_a       7.1005886723679135
_cell_length_b       7.1005888358272475
_cell_length_c       7.100588610094812
_cell_angle_alpha    60.000000405065975
_cell_angle_beta     60.00000082203321
_cell_angle_gamma    60.00000054346104

_space_group_name_H-M_alt    "P 1"
_space_group_IT_number       1

loop_
  _space_group_symop_operation_xyz
  'x, y, z'

loop_
  _atom_site_type_symbol
  _atom_site_label
  _atom_site_symmetry_multiplicity
  _atom_site_fract_x
  _atom_site_fract_y
  _atom_site_fract_z
  _atom_site_occupancy
  In  In1       1.0  0.2500000160950683  0.2500000180949191  0.2500000495775934  1.0000
  In  In2       1.0  0.7499999369818685  0.7499999783913713  0.7500001014977462  1.0000
  V   V1        1.0  0.9999999327676128  0.9999999724024052  0.999999991081633  1.0000
  Cl  Cl1       1.0  0.23135636250768368  0.23135640954669162  0.7686435729173284  1.0000
  Cl  Cl2       1.0  0.76864362405996  0.7686437352766766  0.23135625768568457  1.0000
  Cl  Cl3       1.0  0.7686436456700391  0.23135633336040465  0.23135626263129214  1.0000
  Cl  Cl4       1.0  0.2313563071278839  0.7686436493270895  0.768643749016222  1.0000
  Cl  Cl5       1.0  0.23135646296365409  0.768643543954739  0.23135630586873873  1.0000
  Cl  Cl6       1.0  0.7686436854888964  0.23135638353756324  0.7686437017407542  1.0000
