data_image0
_chemical_formula_structural       In2WI6
_chemical_formula_sum              "In2 W1 I6"
_cell_length_a       7.980270523036963
_cell_length_b       7.9802705609435085
_cell_length_c       7.980270823030838
_cell_angle_alpha    59.99999809437762
_cell_angle_beta     59.99999955070032
_cell_angle_gamma    60.00000173609207

_space_group_name_H-M_alt    "P 1"
_space_group_IT_number       1

loop_
  _space_group_symop_operation_xyz
  'x, y, z'

loop_
  _atom_site_type_symbol
  _atom_site_label
  _atom_site_symmetry_multiplicity
  _atom_site_fract_x
  _atom_site_fract_y
  _atom_site_fract_z
  _atom_site_occupancy
  In  In1       1.0  0.25000001472441047  0.25000001985192344  0.24999998122163403  1.0000
  In  In2       1.0  0.749999980713352  0.7499999981671287  0.7500000098484334  1.0000
  W   W1        1.0  1.7084955753837362e-08  3.9902615831808274e-08  7.845832909082202e-09  1.0000
  I   I1        1.0  0.2434365872601594  0.24343657343587718  0.756563415466946  1.0000
  I   I2        1.0  0.756563395945052  0.756563403145843  0.2434365874009796  1.0000
  I   I3        1.0  0.756563316369258  0.24343669503426776  0.24343668031775628  1.0000
  I   I4        1.0  0.2434367152722239  0.756563270804442  0.7565633099689911  1.0000
  I   I5        1.0  0.24343667074106426  0.7565633139429705  0.24343667113043424  1.0000
  I   I6        1.0  0.756563310242316  0.24343667798590926  0.7565633414650009  1.0000
