data_image0
_chemical_formula_structural       In2WBr6
_chemical_formula_sum              "In2 W1 Br6"
_cell_length_a       7.603981942033507
_cell_length_b       7.603981886822416
_cell_length_c       7.6039818632162826
_cell_angle_alpha    59.99999938124156
_cell_angle_beta     60.000000884389316
_cell_angle_gamma    59.99999941317992

_space_group_name_H-M_alt    "P 1"
_space_group_IT_number       1

loop_
  _space_group_symop_operation_xyz
  'x, y, z'

loop_
  _atom_site_type_symbol
  _atom_site_label
  _atom_site_symmetry_multiplicity
  _atom_site_fract_x
  _atom_site_fract_y
  _atom_site_fract_z
  _atom_site_occupancy
  In  In1       1.0  0.24999999189364702  0.25000000736117267  0.24999999587582175  1.0000
  In  In2       1.0  0.7500000038438289  0.749999978595629  0.7499999952899663  1.0000
  W   W1        1.0  3.136569594265048e-08  1.336849896316799e-07  8.58075147154843e-08  1.0000
  Br  Br1       1.0  0.23601570434551236  0.2360157323630106  0.7639842559148935  1.0000
  Br  Br2       1.0  0.763984248198939  0.7639841827246392  0.23601580411788708  1.0000
  Br  Br3       1.0  0.7639842967217303  0.2360156720330544  0.2360157103815126  1.0000
  Br  Br4       1.0  0.2360157965423298  0.7639841899027314  0.7639842401123739  1.0000
  Br  Br5       1.0  0.2360156655750918  0.7639843144901279  0.23601566680941036  1.0000
  Br  Br6       1.0  0.7639842601538788  0.23601578582371566  0.7639842561535927  1.0000
