data_image0
_chemical_formula_structural       In2WCl6
_chemical_formula_sum              "In2 W1 Cl6"
_cell_length_a       7.231922645757114
_cell_length_b       7.231922641985473
_cell_length_c       7.231922903488944
_cell_angle_alpha    59.99999853823279
_cell_angle_beta     59.99999913527292
_cell_angle_gamma    59.99999897474876

_space_group_name_H-M_alt    "P 1"
_space_group_IT_number       1

loop_
  _space_group_symop_operation_xyz
  'x, y, z'

loop_
  _atom_site_type_symbol
  _atom_site_label
  _atom_site_symmetry_multiplicity
  _atom_site_fract_x
  _atom_site_fract_y
  _atom_site_fract_z
  _atom_site_occupancy
  In  In1       1.0  0.2500000138938274  0.24999998836493106  0.2500000236107858  1.0000
  In  In2       1.0  0.7499999951842969  0.7499999752559491  0.7500000475176287  1.0000
  W   W1        1.0  0.9999999681468044  2.3709364156875922e-08  0.9999999266374618  1.0000
  Cl  Cl1       1.0  0.23335051513851118  0.23335048524969826  0.7666495395090716  1.0000
  Cl  Cl2       1.0  0.7666495251618289  0.7666495715151113  0.23335048326385135  1.0000
  Cl  Cl3       1.0  0.7666495182909756  0.23335044486835962  0.23335052706831264  1.0000
  Cl  Cl4       1.0  0.23335043770956773  0.766649539074833  0.7666494456688133  1.0000
  Cl  Cl5       1.0  0.2333504834490365  0.7666495548619747  0.23335050098327195  1.0000
  Cl  Cl6       1.0  0.7666495281610676  0.2333504155330098  0.7666495212438412  1.0000
