data_image0
_chemical_formula_structural       In2WF6
_chemical_formula_sum              "In2 W1 F6"
_cell_length_a       6.187001442197565
_cell_length_b       6.187000653738449
_cell_length_c       6.187001029789946
_cell_angle_alpha    59.99999934585813
_cell_angle_beta     59.99999927702019
_cell_angle_gamma    59.9999994080284

_space_group_name_H-M_alt    "P 1"
_space_group_IT_number       1

loop_
  _space_group_symop_operation_xyz
  'x, y, z'

loop_
  _atom_site_type_symbol
  _atom_site_label
  _atom_site_symmetry_multiplicity
  _atom_site_fract_x
  _atom_site_fract_y
  _atom_site_fract_z
  _atom_site_occupancy
  In  In1       1.0  0.25000004727852465  0.24999998492884432  0.24999996882193903  1.0000
  In  In2       1.0  0.7499999345205387  0.7500000280297111  0.750000039769721  1.0000
  W   W1        1.0  5.676305257954273e-08  0.9999999920818196  0.9999999788101465  1.0000
  F   F1        1.0  0.22975860138254425  0.22975856562369776  0.77024143966274  1.0000
  F   F2        1.0  0.7702414321466321  0.7702414097234968  0.2297586038931334  1.0000
  F   F3        1.0  0.7702413781497791  0.22975861009890167  0.2297585330492807  1.0000
  F   F4        1.0  0.22975858091365564  0.7702414206755588  0.7702413503151773  1.0000
  F   F5        1.0  0.22975858088724538  0.7702413846094247  0.22975866051979033  1.0000
  F   F6        1.0  0.7702413964255133  0.22975860261504194  0.7702414342989123  1.0000
