data_image0
_chemical_formula_structural       In2YI6
_chemical_formula_sum              "In2 Y1 I6"
_cell_length_a       8.183513918373496
_cell_length_b       8.183513826591673
_cell_length_c       8.183513889070234
_cell_angle_alpha    59.999999551350115
_cell_angle_beta     59.99999936847687
_cell_angle_gamma    60.00000014847844

_space_group_name_H-M_alt    "P 1"
_space_group_IT_number       1

loop_
  _space_group_symop_operation_xyz
  'x, y, z'

loop_
  _atom_site_type_symbol
  _atom_site_label
  _atom_site_symmetry_multiplicity
  _atom_site_fract_x
  _atom_site_fract_y
  _atom_site_fract_z
  _atom_site_occupancy
  In  In1       1.0  0.2500000228322071  0.24999998579435026  0.24999999701097028  1.0000
  In  In2       1.0  0.7499999774217672  0.7499999977912567  0.7500000065904839  1.0000
  Y   Y1        1.0  2.3972454268976547e-08  2.5442204279650144e-08  2.050552227026299e-08  1.0000
  I   I1        1.0  0.25816171142088384  0.2581617180164062  0.7418382872150401  1.0000
  I   I2        1.0  0.7418382791272168  0.7418382565895993  0.2581617342829344  1.0000
  I   I3        1.0  0.7418382809572563  0.25816171851379827  0.2581617088608822  1.0000
  I   I4        1.0  0.25816173124014935  0.741838280037811  0.7418382641782892  1.0000
  I   I5        1.0  0.25816170219835255  0.7418382977015061  0.2581617118930855  1.0000
  I   I6        1.0  0.7418382729704716  0.2581617188093058  0.7418382657929001  1.0000
