data_image0
_chemical_formula_structural       In2YBr6
_chemical_formula_sum              "In2 Y1 Br6"
_cell_length_a       7.671967566416836
_cell_length_b       7.671967304498477
_cell_length_c       7.671967443370589
_cell_angle_alpha    60.00000081786212
_cell_angle_beta     60.00000015044114
_cell_angle_gamma    59.99999884172604

_space_group_name_H-M_alt    "P 1"
_space_group_IT_number       1

loop_
  _space_group_symop_operation_xyz
  'x, y, z'

loop_
  _atom_site_type_symbol
  _atom_site_label
  _atom_site_symmetry_multiplicity
  _atom_site_fract_x
  _atom_site_fract_y
  _atom_site_fract_z
  _atom_site_occupancy
  In  In1       1.0  0.24999999509260037  0.25000000428120506  0.25000000074839396  1.0000
  In  In2       1.0  0.7499999983827847  0.7500000096508357  0.7499999946821867  1.0000
  Y   Y1        1.0  1.6039530262275327e-08  0.9999999744577669  3.212373001468004e-08  1.0000
  Br  Br1       1.0  0.25510136914517917  0.25510138125072296  0.7448986263610856  1.0000
  Br  Br2       1.0  0.7448986436381497  0.744898619910201  0.25510136840797454  1.0000
  Br  Br3       1.0  0.7448986886883894  0.25510131698300226  0.25510132642538663  1.0000
  Br  Br4       1.0  0.255101338994576  0.7448986394790134  0.7448986923674351  1.0000
  Br  Br5       1.0  0.2551013239626159  0.7448986676265895  0.2551013283863934  1.0000
  Br  Br6       1.0  0.7448986246026221  0.255101386215191  0.7448986395651191  1.0000
