data_image0
_chemical_formula_structural       In2YCl6
_chemical_formula_sum              "In2 Y1 Cl6"
_cell_length_a       7.313416543542562
_cell_length_b       7.3134168465918705
_cell_length_c       7.313416568216948
_cell_angle_alpha    59.9999998425274
_cell_angle_beta     60.00000021964054
_cell_angle_gamma    60.00000036773253

_space_group_name_H-M_alt    "P 1"
_space_group_IT_number       1

loop_
  _space_group_symop_operation_xyz
  'x, y, z'

loop_
  _atom_site_type_symbol
  _atom_site_label
  _atom_site_symmetry_multiplicity
  _atom_site_fract_x
  _atom_site_fract_y
  _atom_site_fract_z
  _atom_site_occupancy
  In  In1       1.0  0.2500000402174407  0.2500000197638439  0.24999997286633593  1.0000
  In  In2       1.0  0.7499999968785714  0.7500000090518883  0.7499999891975054  1.0000
  Y   Y1        1.0  0.9999999730632687  5.0239650539402025e-09  0.9999999795073334  1.0000
  Cl  Cl1       1.0  0.2518005139508573  0.25180049779899444  0.7481995032422616  1.0000
  Cl  Cl2       1.0  0.7481995406414719  0.7481994690545093  0.2518005111362358  1.0000
  Cl  Cl3       1.0  0.7481994733037928  0.2518004871478968  0.25180054182803574  1.0000
  Cl  Cl4       1.0  0.2518004486297721  0.7481995366438707  0.7481995131454108  1.0000
  Cl  Cl5       1.0  0.25180049688198164  0.7481995100691324  0.25180047100069514  1.0000
  Cl  Cl6       1.0  0.748199505782433  0.2518004752055749  0.7481995177433077  1.0000
