data_image0
_chemical_formula_structural       In2YF6
_chemical_formula_sum              "In2 Y1 F6"
_cell_length_a       6.011943407971836
_cell_length_b       6.011943479220201
_cell_length_c       6.011943582605401
_cell_angle_alpha    59.99999901516298
_cell_angle_beta     59.99999797060725
_cell_angle_gamma    59.999998451872635

_space_group_name_H-M_alt    "P 1"
_space_group_IT_number       1

loop_
  _space_group_symop_operation_xyz
  'x, y, z'

loop_
  _atom_site_type_symbol
  _atom_site_label
  _atom_site_symmetry_multiplicity
  _atom_site_fract_x
  _atom_site_fract_y
  _atom_site_fract_z
  _atom_site_occupancy
  In  In1       1.0  0.24999993505319723  0.24999982780298044  0.2500000789566711  1.0000
  In  In2       1.0  0.7500000394154425  0.7499999906683256  0.7499998261918578  1.0000
  Y   Y1        1.0  9.739887223387852e-09  0.999999959256274  0.9999999905515855  1.0000
  F   F1        1.0  0.2520632174414084  0.2520631549089881  0.7479368089001958  1.0000
  F   F2        1.0  0.7479367536284872  0.7479368754296921  0.2520633196950699  1.0000
  F   F3        1.0  0.7479368674616221  0.2520631845742044  0.2520632272047758  1.0000
  F   F4        1.0  0.2520632080039322  0.7479368437272885  0.7479367820136736  1.0000
  F   F5        1.0  0.25206311748656124  0.747936929625328  0.2520632470823185  1.0000
  F   F6        1.0  0.7479368842542087  0.25206320460985293  0.74793676100188  1.0000
