data_image0
_chemical_formula_structural       In2ZrI6
_chemical_formula_sum              "In2 Zr1 I6"
_cell_length_a       8.10550518000178
_cell_length_b       8.105505087750965
_cell_length_c       8.105505108354441
_cell_angle_alpha    60.0000000043312
_cell_angle_beta     59.999999442497895
_cell_angle_gamma    60.00000041548552

_space_group_name_H-M_alt    "P 1"
_space_group_IT_number       1

loop_
  _space_group_symop_operation_xyz
  'x, y, z'

loop_
  _atom_site_type_symbol
  _atom_site_label
  _atom_site_symmetry_multiplicity
  _atom_site_fract_x
  _atom_site_fract_y
  _atom_site_fract_z
  _atom_site_occupancy
  In  In1       1.0  0.24999998579651575  0.25000000695490815  0.24999999796900724  1.0000
  In  In2       1.0  0.7500000130497211  0.74999999064465  0.7500000107964773  1.0000
  Zr  Zr1       1.0  0.9999999513195872  0.9999999879119695  4.0254057197435074e-08  1.0000
  I   I1        1.0  0.2492068603944202  0.249206848427236  0.7507931480592054  1.0000
  I   I2        1.0  0.7507931639067429  0.7507931839254086  0.24920681579751972  1.0000
  I   I3        1.0  0.7507931750886806  0.24920680750020552  0.24920683062243507  1.0000
  I   I4        1.0  0.2492068423784427  0.7507931598792773  0.7507931555668672  1.0000
  I   I5        1.0  0.24920684979577315  0.7507931804307019  0.24920681036057402  1.0000
  I   I6        1.0  0.7507931544895685  0.24920683076789005  0.7507931938207588  1.0000
