data_image0
_chemical_formula_structural       In2ZrCl6
_chemical_formula_sum              "In2 Zr1 Cl6"
_cell_length_a       7.241690751632748
_cell_length_b       7.241691023024944
_cell_length_c       7.241690849880832
_cell_angle_alpha    59.999999136272216
_cell_angle_beta     60.00000155774104
_cell_angle_gamma    59.9999993382589

_space_group_name_H-M_alt    "P 1"
_space_group_IT_number       1

loop_
  _space_group_symop_operation_xyz
  'x, y, z'

loop_
  _atom_site_type_symbol
  _atom_site_label
  _atom_site_symmetry_multiplicity
  _atom_site_fract_x
  _atom_site_fract_y
  _atom_site_fract_z
  _atom_site_occupancy
  In  In1       1.0  0.24999999315586213  0.25000000170423675  0.2500000066952656  1.0000
  In  In2       1.0  0.7499999925940286  0.7500000135689184  0.7499999941046491  1.0000
  Zr  Zr1       1.0  0.9999999688336478  4.566352160170445e-08  3.1416417443562255e-08  1.0000
  Cl  Cl1       1.0  0.2423688489274654  0.24236886822853335  0.7576311503683746  1.0000
  Cl  Cl2       1.0  0.7576311026135463  0.7576311013811  0.24236888622506172  1.0000
  Cl  Cl3       1.0  0.7576311910775086  0.24236883470971687  0.24236881542223288  1.0000
  Cl  Cl4       1.0  0.24236891121869314  0.7576310892363951  0.7576310692010778  1.0000
  Cl  Cl5       1.0  0.24236877397947504  0.7576312448725033  0.24236881015646147  1.0000
  Cl  Cl6       1.0  0.7576312304210132  0.2423687957692734  0.7576312321549203  1.0000
