data_image0
_chemical_formula_structural       In2ZrF6
_chemical_formula_sum              "In2 Zr1 F6"
_cell_length_a       6.21235639926191
_cell_length_b       6.212356547508705
_cell_length_c       6.212356088038088
_cell_angle_alpha    60.000002762341495
_cell_angle_beta     60.00000147036544
_cell_angle_gamma    60.00000269914003

_space_group_name_H-M_alt    "P 1"
_space_group_IT_number       1

loop_
  _space_group_symop_operation_xyz
  'x, y, z'

loop_
  _atom_site_type_symbol
  _atom_site_label
  _atom_site_symmetry_multiplicity
  _atom_site_fract_x
  _atom_site_fract_y
  _atom_site_fract_z
  _atom_site_occupancy
  In  In1       1.0  0.24999999908723217  0.25000000711465525  0.25000001581197984  1.0000
  In  In2       1.0  0.7500000633314997  0.7499999681143902  0.749999984676492  1.0000
  Zr  Zr1       1.0  0.9999999899558598  0.999999974370945  3.715294040313563e-08  1.0000
  F   F1        1.0  0.231992577846714  0.2319926052882785  0.7680074025355144  1.0000
  F   F2        1.0  0.7680073791696213  0.7680073738836973  0.2319925794657959  1.0000
  F   F3        1.0  0.7680073308793371  0.23199265754751353  0.23199264308206624  1.0000
  F   F4        1.0  0.2319926150587646  0.7680073827399011  0.7680073267782033  1.0000
  F   F5        1.0  0.23199264525878785  0.7680073843858248  0.23199265348364714  1.0000
  F   F6        1.0  0.7680073965819758  0.23199263027253592  0.7680073810409226  1.0000
