data_image0
_chemical_formula_structural       In2ZnF6
_chemical_formula_sum              "In2 Zn1 F6"
_cell_length_a       5.426178200481286
_cell_length_b       5.426178040270863
_cell_length_c       5.4261781609512445
_cell_angle_alpha    60.0000004529742
_cell_angle_beta     60.000000439880694
_cell_angle_gamma    60.000000146112946

_space_group_name_H-M_alt    "P 1"
_space_group_IT_number       1

loop_
  _space_group_symop_operation_xyz
  'x, y, z'

loop_
  _atom_site_type_symbol
  _atom_site_label
  _atom_site_symmetry_multiplicity
  _atom_site_fract_x
  _atom_site_fract_y
  _atom_site_fract_z
  _atom_site_occupancy
  In  In1       1.0  0.2499999945608233  0.24999999676205262  0.2499999755429528  1.0000
  In  In2       1.0  0.7499999821555856  0.7500000331711364  0.7499999483369196  1.0000
  Zn  Zn1       1.0  5.00840422587345e-09  0.9999999977428957  0.9999999801951727  1.0000
  F   F1        1.0  0.2547390189496116  0.25473904147562876  0.745260981498004  1.0000
  F   F2        1.0  0.745261013869783  0.7452609478296882  0.2547390581197999  1.0000
  F   F3        1.0  0.7452609456741279  0.25473902441622903  0.2547390775177913  1.0000
  F   F4        1.0  0.2547390291945825  0.7452609536035669  0.7452609653885135  1.0000
  F   F5        1.0  0.25473905569902516  0.745260954133668  0.2547390428867063  1.0000
  F   F6        1.0  0.7452609648464572  0.25473904645716916  0.74526096773861  1.0000
