data_image0
_chemical_formula_structural       In2ZnI6
_chemical_formula_sum              "In2 Zn1 I6"
_cell_length_a       7.8625070858104555
_cell_length_b       7.862507154356875
_cell_length_c       7.862506989990376
_cell_angle_alpha    60.00000039791081
_cell_angle_beta     60.000000631411545
_cell_angle_gamma    59.99999958242339

_space_group_name_H-M_alt    "P 1"
_space_group_IT_number       1

loop_
  _space_group_symop_operation_xyz
  'x, y, z'

loop_
  _atom_site_type_symbol
  _atom_site_label
  _atom_site_symmetry_multiplicity
  _atom_site_fract_x
  _atom_site_fract_y
  _atom_site_fract_z
  _atom_site_occupancy
  In  In1       1.0  0.24999999350108712  0.24999999627215522  0.24999999545157034  1.0000
  In  In2       1.0  0.7500000045941567  0.7500000090666004  0.7500000125148367  1.0000
  Zn  Zn1       1.0  5.192345526316674e-10  0.9999999984422969  8.191820799462602e-08  1.0000
  I   I1        1.0  0.25052872451964936  0.2505287065095157  0.7494713136156584  1.0000
  I   I2        1.0  0.7494713041492753  0.7494713128485638  0.25052872038488694  1.0000
  I   I3        1.0  0.7494713340769434  0.25052864813748976  0.2505286867441701  1.0000
  I   I4        1.0  0.250528741575038  0.7494712434889678  0.7494712528136079  1.0000
  I   I5        1.0  0.25052864506942035  0.749471357734719  0.2505286706658027  1.0000
  I   I6        1.0  0.7494712520755973  0.2505287301622817  0.7494712600101848  1.0000
