data_image0
_chemical_formula_structural       In2ZnBr6
_chemical_formula_sum              "In2 Zn1 Br6"
_cell_length_a       7.4343249502542275
_cell_length_b       7.434325235266494
_cell_length_c       7.434325098693348
_cell_angle_alpha    60.00000004878934
_cell_angle_beta     59.99999903053211
_cell_angle_gamma    59.99999979438426

_space_group_name_H-M_alt    "P 1"
_space_group_IT_number       1

loop_
  _space_group_symop_operation_xyz
  'x, y, z'

loop_
  _atom_site_type_symbol
  _atom_site_label
  _atom_site_symmetry_multiplicity
  _atom_site_fract_x
  _atom_site_fract_y
  _atom_site_fract_z
  _atom_site_occupancy
  In  In1       1.0  0.2500000717904604  0.249999926239632  0.2500000236451  1.0000
  In  In2       1.0  0.7499999083972222  0.7500000752543193  0.7500000236952987  1.0000
  Zn  Zn1       1.0  3.4671080419435886e-09  8.237094917159478e-09  7.599018609173976e-09  1.0000
  Br  Br1       1.0  0.24556007319662476  0.24556006193393098  0.754439920238957  1.0000
  Br  Br2       1.0  0.7544399418990679  0.7544399280280873  0.24556007640515481  1.0000
  Br  Br3       1.0  0.7544399089096957  0.24556008555494394  0.24556010884459467  1.0000
  Br  Br4       1.0  0.2455600519962106  0.7544399225286837  0.7544399031433817  1.0000
  Br  Br5       1.0  0.2455601203233409  0.7544399086845663  0.24556006505462977  1.0000
  Br  Br6       1.0  0.7544399130500664  0.24556007304035699  0.7544398889060357  1.0000
