data_image0
_chemical_formula_structural       In2ZrBr6
_chemical_formula_sum              "In2 Zr1 Br6"
_cell_length_a       7.608984720146038
_cell_length_b       7.608984721539161
_cell_length_c       7.60898477245647
_cell_angle_alpha    59.999999349505345
_cell_angle_beta     59.99999895353419
_cell_angle_gamma    59.99999981009108

_space_group_name_H-M_alt    "P 1"
_space_group_IT_number       1

loop_
  _space_group_symop_operation_xyz
  'x, y, z'

loop_
  _atom_site_type_symbol
  _atom_site_label
  _atom_site_symmetry_multiplicity
  _atom_site_fract_x
  _atom_site_fract_y
  _atom_site_fract_z
  _atom_site_occupancy
  In  In1       1.0  0.2500000063197038  0.24999999599310635  0.25000000223795293  1.0000
  In  In2       1.0  0.7499999985103334  0.7499999992465439  0.7500000034192209  1.0000
  Zr  Zr1       1.0  1.4178679470163706e-08  2.5753656726833062e-08  0.9999999944904252  1.0000
  Br  Br1       1.0  0.24591265545468452  0.24591267730754832  0.7540873283478465  1.0000
  Br  Br2       1.0  0.7540872984072832  0.7540873114936874  0.24591270995527703  1.0000
  Br  Br3       1.0  0.7540873414936491  0.24591264894171988  0.2459126814589246  1.0000
  Br  Br4       1.0  0.24591269129664947  0.7540873124962559  0.7540872982057686  1.0000
  Br  Br5       1.0  0.24591266260179925  0.7540873246628416  0.24591270162683154  1.0000
  Br  Br6       1.0  0.7540873340881655  0.2459126995496725  0.7540872817858245  1.0000
