data_image0
_chemical_formula_structural       In2ZnCl6
_chemical_formula_sum              "In2 Zn1 Cl6"
_cell_length_a       7.159187691712643
_cell_length_b       7.159187958851437
_cell_length_c       7.159187558214544
_cell_angle_alpha    60.00000027109203
_cell_angle_beta     60.00000178013489
_cell_angle_gamma    60.000000916711905

_space_group_name_H-M_alt    "P 1"
_space_group_IT_number       1

loop_
  _space_group_symop_operation_xyz
  'x, y, z'

loop_
  _atom_site_type_symbol
  _atom_site_label
  _atom_site_symmetry_multiplicity
  _atom_site_fract_x
  _atom_site_fract_y
  _atom_site_fract_z
  _atom_site_occupancy
  In  In1       1.0  0.2499998987135103  0.2500000603286571  0.2500000463554509  1.0000
  In  In2       1.0  0.7499999600708626  0.7500000424167195  0.7499999241339042  1.0000
  Zn  Zn1       1.0  6.8597151945710326e-09  0.9999999503887821  1.6664363215785677e-07  1.0000
  Cl  Cl1       1.0  0.2414764941782564  0.2414765533877292  0.7585235134195405  1.0000
  Cl  Cl2       1.0  0.7585235199330582  0.7585235236966714  0.241476513759002  1.0000
  Cl  Cl3       1.0  0.7585235403558567  0.24147641638641076  0.24147653051105697  1.0000
  Cl  Cl4       1.0  0.24147667203245313  0.758523356187778  0.7585234282619305  1.0000
  Cl  Cl5       1.0  0.24147646930907393  0.7585235832742815  0.24147639364934848  1.0000
  Cl  Cl6       1.0  0.7585234657536836  0.24147652289255978  0.7585234559753031  1.0000
