data_image0
_chemical_formula_structural       Ir2CoSe6
_chemical_formula_sum              "Ir2 Co1 Se6"
_cell_length_a       6.066389315329403
_cell_length_b       6.06638891732361
_cell_length_c       6.066389592820501
_cell_angle_alpha    59.99999990862452
_cell_angle_beta     60.000002620133166
_cell_angle_gamma    59.999998553412496

_space_group_name_H-M_alt    "P 1"
_space_group_IT_number       1

loop_
  _space_group_symop_operation_xyz
  'x, y, z'

loop_
  _atom_site_type_symbol
  _atom_site_label
  _atom_site_symmetry_multiplicity
  _atom_site_fract_x
  _atom_site_fract_y
  _atom_site_fract_z
  _atom_site_occupancy
  Ir  Ir1       1.0  0.250000730875731  0.24999366231269138  0.25000377962637615  1.0000
  Ir  Ir2       1.0  0.7499993272363263  0.7500082158784995  0.7499921529389543  1.0000
  Co  Co1       1.0  0.999999987639259  0.9999998829036487  2.477039323382014e-07  1.0000
  Se  Se1       1.0  0.2718807127593921  0.27187570491656143  0.7281210812626787  1.0000
  Se  Se2       1.0  0.7281197379805096  0.7281239161415372  0.27188049640783224  1.0000
  Se  Se3       1.0  0.7281220718938578  0.2718736218856091  0.2718827636619498  1.0000
  Se  Se4       1.0  0.27187839347704224  0.728124898870506  0.7281186579110042  1.0000
  Se  Se5       1.0  0.27187627965662975  0.7281241767642171  0.271880062328885  1.0000
  Se  Se6       1.0  0.7281227669714008  0.27187591066038436  0.7281207643783473  1.0000
