data_image0
_chemical_formula_structural       Ir2CO6
_chemical_formula_sum              "Ir2 C1 O6"
_cell_length_a       4.8993096064754065
_cell_length_b       4.899309916577304
_cell_length_c       4.899309364969755
_cell_angle_alpha    59.99999964985645
_cell_angle_beta     59.999995732255634
_cell_angle_gamma    60.000003549749735

_space_group_name_H-M_alt    "P 1"
_space_group_IT_number       1

loop_
  _space_group_symop_operation_xyz
  'x, y, z'

loop_
  _atom_site_type_symbol
  _atom_site_label
  _atom_site_symmetry_multiplicity
  _atom_site_fract_x
  _atom_site_fract_y
  _atom_site_fract_z
  _atom_site_occupancy
  Ir  Ir1       1.0  0.24999549208581695  0.24999885996254445  0.24999842237596678  1.0000
  Ir  Ir2       1.0  0.7499962279349398  0.7500050818141997  0.7499934352309147  1.0000
  C   C1        1.0  0.9999980637239959  3.1497872760881035e-07  0.9999985531876778  1.0000
  O   O1        1.0  0.22213151646291696  0.22212783742795042  0.7778724321285533  1.0000
  O   O2        1.0  0.7778725755592195  0.7778696322855907  0.22213135311602972  1.0000
  O   O3        1.0  0.7778727036493718  0.2221276229380266  0.22213162162693567  1.0000
  O   O4        1.0  0.222131711017856  0.7778702717468554  0.7778717102063474  1.0000
  O   O5        1.0  0.22212967803039851  0.7778717749293809  0.22213111916949987  1.0000
  O   O6        1.0  0.7778721561149899  0.22212857958945503  0.777871409620768  1.0000
