data_image0
_chemical_formula_structural       Ir2CoO6
_chemical_formula_sum              "Ir2 Co1 O6"
_cell_length_a       5.085741251670471
_cell_length_b       5.085741552531729
_cell_length_c       5.085741532042097
_cell_angle_alpha    59.999999556303294
_cell_angle_beta     59.999998867738725
_cell_angle_gamma    59.999999529688345

_space_group_name_H-M_alt    "P 1"
_space_group_IT_number       1

loop_
  _space_group_symop_operation_xyz
  'x, y, z'

loop_
  _atom_site_type_symbol
  _atom_site_label
  _atom_site_symmetry_multiplicity
  _atom_site_fract_x
  _atom_site_fract_y
  _atom_site_fract_z
  _atom_site_occupancy
  Ir  Ir1       1.0  0.24999924613433305  0.25000091309865496  0.2499997876749063  1.0000
  Ir  Ir2       1.0  0.7499982983670427  0.7500009572329113  0.750000784182254  1.0000
  Co  Co1       1.0  0.9999999922245127  5.057205919613853e-08  0.9999999923656849  1.0000
  O   O1        1.0  0.24820383674217786  0.24820289603938953  0.7517973117894688  1.0000
  O   O2        1.0  0.7517975277952675  0.7517956606181506  0.24820355154670756  1.0000
  O   O3        1.0  0.7517964047545739  0.2482031741757581  0.24820355325289858  1.0000
  O   O4        1.0  0.2482033957689478  0.7517971115645972  0.7517961696893152  1.0000
  O   O5        1.0  0.24820452677617633  0.7517961601213701  0.24820229641207614  1.0000
  O   O6        1.0  0.7517967683287216  0.24820306119753635  0.7517965645435395  1.0000
