data_image0
_chemical_formula_structural       Ir2CoS6
_chemical_formula_sum              "Ir2 Co1 S6"
_cell_length_a       5.735809318344927
_cell_length_b       5.735809260194171
_cell_length_c       5.735809328964715
_cell_angle_alpha    59.99999952981203
_cell_angle_beta     59.999999527570566
_cell_angle_gamma    59.999998970812705

_space_group_name_H-M_alt    "P 1"
_space_group_IT_number       1

loop_
  _space_group_symop_operation_xyz
  'x, y, z'

loop_
  _atom_site_type_symbol
  _atom_site_label
  _atom_site_symmetry_multiplicity
  _atom_site_fract_x
  _atom_site_fract_y
  _atom_site_fract_z
  _atom_site_occupancy
  Ir  Ir1       1.0  0.24999957370112308  0.250000290697922  0.2500005368300708  1.0000
  Ir  Ir2       1.0  0.7500010986955364  0.750000340413804  0.7499984664002978  1.0000
  Co  Co1       1.0  0.999999958700934  0.9999999487537405  1.2647058674469406e-07  1.0000
  S   S1        1.0  0.2634408638705795  0.26344135430320237  0.7365586634821728  1.0000
  S   S2        1.0  0.736559022475988  0.7365586212834558  0.2634415783354174  1.0000
  S   S3        1.0  0.7365588788958737  0.2634406721826375  0.26344163872088516  1.0000
  S   S4        1.0  0.2634409778084715  0.736558957491767  0.7365586688336243  1.0000
  S   S5        1.0  0.2634405052934933  0.7365586838378727  0.2634417790592196  1.0000
  S   S6        1.0  0.7365591283147142  0.2634411380100075  0.7365585334960227  1.0000
