data_image0
_chemical_formula_structural       Ir2CrSe6
_chemical_formula_sum              "Ir2 Cr1 Se6"
_cell_length_a       6.019398269016407
_cell_length_b       6.01939833655325
_cell_length_c       6.019398262915321
_cell_angle_alpha    60.00000104009273
_cell_angle_beta     60.0000006878989
_cell_angle_gamma    60.00000099791306

_space_group_name_H-M_alt    "P 1"
_space_group_IT_number       1

loop_
  _space_group_symop_operation_xyz
  'x, y, z'

loop_
  _atom_site_type_symbol
  _atom_site_label
  _atom_site_symmetry_multiplicity
  _atom_site_fract_x
  _atom_site_fract_y
  _atom_site_fract_z
  _atom_site_occupancy
  Ir  Ir1       1.0  0.25000057036933254  0.25000157032642406  0.24999722403495409  1.0000
  Ir  Ir2       1.0  0.750000136120765  0.7499993476069935  0.7500034610530751  1.0000
  Cr  Cr1       1.0  0.9999999865918713  0.9999999654107239  0.999999842917479  1.0000
  Se  Se1       1.0  0.27375836638747736  0.27375880335448294  0.7262424008001819  1.0000
  Se  Se2       1.0  0.726241614653638  0.7262411257325853  0.273756920283254  1.0000
  Se  Se3       1.0  0.7262415576957217  0.2737596964126101  0.2737574507634907  1.0000
  Se  Se4       1.0  0.2737577870918998  0.7262401329759599  0.7262426934909387  1.0000
  Se  Se5       1.0  0.27375952169628304  0.7262412621082516  0.2737576708989033  1.0000
  Se  Se6       1.0  0.726240457300478  0.2737581033770997  0.7262423367024023  1.0000
