data_image0
_chemical_formula_structural       Ir2CrS6
_chemical_formula_sum              "Ir2 Cr1 S6"
_cell_length_a       5.740151926627284
_cell_length_b       5.740151864755834
_cell_length_c       5.740151844331224
_cell_angle_alpha    60.00000031281648
_cell_angle_beta     59.9999990494723
_cell_angle_gamma    59.99999985616735

_space_group_name_H-M_alt    "P 1"
_space_group_IT_number       1

loop_
  _space_group_symop_operation_xyz
  'x, y, z'

loop_
  _atom_site_type_symbol
  _atom_site_label
  _atom_site_symmetry_multiplicity
  _atom_site_fract_x
  _atom_site_fract_y
  _atom_site_fract_z
  _atom_site_occupancy
  Ir  Ir1       1.0  0.2500001916823148  0.24999926842607983  0.2500003421561151  1.0000
  Ir  Ir2       1.0  0.7500004271338973  0.7500006750313165  0.7499999843552333  1.0000
  Cr  Cr1       1.0  0.99999999136433  0.9999999957327088  0.99999996464074  1.0000
  S   S1        1.0  0.26848216392237007  0.2684819713158998  0.7315179831367759  1.0000
  S   S2        1.0  0.731517701895908  0.7315180766901148  0.26848182093174083  1.0000
  S   S3        1.0  0.731517963303001  0.268481828928124  0.26848228635743426  1.0000
  S   S4        1.0  0.26848172630500367  0.7315182468152813  0.7315176442109514  1.0000
  S   S5        1.0  0.2684819416881802  0.7315182240953675  0.268482115702581  1.0000
  S   S6        1.0  0.7315178904625264  0.26848172576295903  0.7315178500898462  1.0000
