data_image0
_chemical_formula_structural       Ir2FeO6
_chemical_formula_sum              "Ir2 Fe1 O6"
_cell_length_a       5.123363801553616
_cell_length_b       5.123363335963453
_cell_length_c       5.123363239717418
_cell_angle_alpha    59.99999998650537
_cell_angle_beta     60.000000364832374
_cell_angle_gamma    59.999999980609935

_space_group_name_H-M_alt    "P 1"
_space_group_IT_number       1

loop_
  _space_group_symop_operation_xyz
  'x, y, z'

loop_
  _atom_site_type_symbol
  _atom_site_label
  _atom_site_symmetry_multiplicity
  _atom_site_fract_x
  _atom_site_fract_y
  _atom_site_fract_z
  _atom_site_occupancy
  Ir  Ir1       1.0  0.25000599985665495  0.2499992572416371  0.2499945593159358  1.0000
  Ir  Ir2       1.0  0.7500053081683554  0.7499973533855723  0.749996363557045  1.0000
  Fe  Fe1       1.0  0.9999998671863405  0.9999999521898079  1.4105984389203092e-07  1.0000
  O   O1        1.0  0.24989474023933425  0.24989653961180516  0.7501048446329307  1.0000
  O   O2        1.0  0.7501034707419104  0.7501039460311469  0.2498973099053747  1.0000
  O   O3        1.0  0.7501030591223173  0.24989523643586736  0.24989766205667427  1.0000
  O   O4        1.0  0.24989219196437223  0.7501041017624612  0.7501047504558602  1.0000
  O   O5        1.0  0.24989562953591204  0.7501046633559653  0.249896431295303  1.0000
  O   O6        1.0  0.7500997503075862  0.24989899449307693  0.7501078910166409  1.0000
