data_image0
_chemical_formula_structural       Ir2FeSe6
_chemical_formula_sum              "Ir2 Fe1 Se6"
_cell_length_a       7.146744982177201
_cell_length_b       6.3462709569185325
_cell_length_c       6.207055503396062
_cell_angle_alpha    49.72548609910434
_cell_angle_beta     58.777145522390896
_cell_angle_gamma    55.472188365703715

_space_group_name_H-M_alt    "P 1"
_space_group_IT_number       1

loop_
  _space_group_symop_operation_xyz
  'x, y, z'

loop_
  _atom_site_type_symbol
  _atom_site_label
  _atom_site_symmetry_multiplicity
  _atom_site_fract_x
  _atom_site_fract_y
  _atom_site_fract_z
  _atom_site_occupancy
  Ir  Ir1       1.0  0.2289387368879791  0.4922575771167986  0.030722526260514898  1.0000
  Ir  Ir2       1.0  0.7715844481261748  0.5086962149058835  0.9667558177456452  1.0000
  Fe  Fe1       1.0  0.9999732764225283  0.00043014947777339377  0.0010221089609234956  1.0000
  Se  Se1       1.0  0.2060446803036929  0.2996750571725731  0.796793267816097  1.0000
  Se  Se2       1.0  0.7943345914952281  0.7011928222990633  0.20307973054277895  1.0000
  Se  Se3       1.0  0.8312890467397026  0.01017381911902725  0.436739747109244  1.0000
  Se  Se4       1.0  0.16696009410691254  0.9881423406689138  0.5659602282691166  1.0000
  Se  Se5       1.0  0.3275960969864022  0.6667971972196463  0.2029696976817343  1.0000
  Se  Se6       1.0  0.6731394947770449  0.33260323274703213  0.7960935335838877  1.0000
