data_image0
_chemical_formula_structural       Ir2FeS6
_chemical_formula_sum              "Ir2 Fe1 S6"
_cell_length_a       5.710400961246459
_cell_length_b       5.710400863742635
_cell_length_c       5.710400915463346
_cell_angle_alpha    59.999999850494305
_cell_angle_beta     59.999999626534496
_cell_angle_gamma    59.999998917394755

_space_group_name_H-M_alt    "P 1"
_space_group_IT_number       1

loop_
  _space_group_symop_operation_xyz
  'x, y, z'

loop_
  _atom_site_type_symbol
  _atom_site_label
  _atom_site_symmetry_multiplicity
  _atom_site_fract_x
  _atom_site_fract_y
  _atom_site_fract_z
  _atom_site_occupancy
  Ir  Ir1       1.0  0.24999987748932376  0.2499993034721376  0.2500004089933946  1.0000
  Ir  Ir2       1.0  0.7500004048045454  0.7499993302486239  0.7500010292565306  1.0000
  Fe  Fe1       1.0  0.9999999955457247  9.222475066915189e-08  0.9999998668040455  1.0000
  S   S1        1.0  0.2645786199865648  0.26457900263379186  0.7354211902585353  1.0000
  S   S2        1.0  0.7354211188029314  0.7354213404620045  0.2645783534143573  1.0000
  S   S3        1.0  0.7354213622205003  0.26457913538990674  0.2645784254557334  1.0000
  S   S4        1.0  0.26457849515439946  0.7354214221820541  0.7354209972173287  1.0000
  S   S5        1.0  0.2645788640315996  0.7354215682330585  0.2645785940259073  1.0000
  S   S6        1.0  0.7354212658398538  0.2645788027446379  0.7354211131686373  1.0000
