data_image0
_chemical_formula_structural       Ir2GeSe6
_chemical_formula_sum              "Ir2 Ge1 Se6"
_cell_length_a       6.184701845983453
_cell_length_b       6.1847012338954235
_cell_length_c       6.1847023304259165
_cell_angle_alpha    60.000006753811235
_cell_angle_beta     60.0000089832997
_cell_angle_gamma    60.00000400172386

_space_group_name_H-M_alt    "P 1"
_space_group_IT_number       1

loop_
  _space_group_symop_operation_xyz
  'x, y, z'

loop_
  _atom_site_type_symbol
  _atom_site_label
  _atom_site_symmetry_multiplicity
  _atom_site_fract_x
  _atom_site_fract_y
  _atom_site_fract_z
  _atom_site_occupancy
  Ir  Ir1       1.0  0.2499985179037946  0.24999933431082624  0.2500028844063804  1.0000
  Ir  Ir2       1.0  0.7499967889413961  0.7500038526823504  0.7499948531626272  1.0000
  Ge  Ge1       1.0  1.5394728815225066e-07  0.9999998574197608  1.0588207114927189e-07  1.0000
  Se  Se1       1.0  0.2805577199550292  0.2805540767011413  0.7194430404776433  1.0000
  Se  Se2       1.0  0.7194441519322993  0.7194441180034552  0.2805584558000409  1.0000
  Se  Se3       1.0  0.7194441722747623  0.28055350027222026  0.2805581843841318  1.0000
  Se  Se4       1.0  0.28055777752913613  0.7194451776210168  0.7194431251207761  1.0000
  Se  Se5       1.0  0.28055534871736293  0.7194440825045029  0.28055640628473655  1.0000
  Se  Se6       1.0  0.7194453600175529  0.28055600534880293  0.7194429399453461  1.0000
