data_image0
_chemical_formula_structural       Ir2GeO6
_chemical_formula_sum              "Ir2 Ge1 O6"
_cell_length_a       5.048933784881428
_cell_length_b       5.048933714258119
_cell_length_c       5.048933682465983
_cell_angle_alpha    59.99999832885479
_cell_angle_beta     59.99999766930422
_cell_angle_gamma    59.99999833742772

_space_group_name_H-M_alt    "P 1"
_space_group_IT_number       1

loop_
  _space_group_symop_operation_xyz
  'x, y, z'

loop_
  _atom_site_type_symbol
  _atom_site_label
  _atom_site_symmetry_multiplicity
  _atom_site_fract_x
  _atom_site_fract_y
  _atom_site_fract_z
  _atom_site_occupancy
  Ir  Ir1       1.0  0.24999905508518575  0.24999986110040368  0.2500019149108387  1.0000
  Ir  Ir2       1.0  0.7499991551046462  0.7499993358747686  0.7500027007851459  1.0000
  Ge  Ge1       1.0  0.9999999982679026  0.9999999708910038  1.1247074251399604e-07  1.0000
  O   O1        1.0  0.25199914043732086  0.2519991734894989  0.7480003361174417  1.0000
  O   O2        1.0  0.7480010627006515  0.7480009331418173  0.2519979698247284  1.0000
  O   O3        1.0  0.7480010012372333  0.25199963811352466  0.25199829528758155  1.0000
  O   O4        1.0  0.25199926164812686  0.7480013733223848  0.7480003047801463  1.0000
  O   O5        1.0  0.25199969945394574  0.7480006675194847  0.25199831486549107  1.0000
  O   O6        1.0  0.7480016114851118  0.251999072823635  0.7480000481333205  1.0000
