data_image0
_chemical_formula_structural       Ir2MnSe6
_chemical_formula_sum              "Ir2 Mn1 Se6"
_cell_length_a       6.110806816389025
_cell_length_b       6.110807226507097
_cell_length_c       6.110806857061378
_cell_angle_alpha    59.99999806636607
_cell_angle_beta     59.999995622444565
_cell_angle_gamma    59.99999839130798

_space_group_name_H-M_alt    "P 1"
_space_group_IT_number       1

loop_
  _space_group_symop_operation_xyz
  'x, y, z'

loop_
  _atom_site_type_symbol
  _atom_site_label
  _atom_site_symmetry_multiplicity
  _atom_site_fract_x
  _atom_site_fract_y
  _atom_site_fract_z
  _atom_site_occupancy
  Ir  Ir1       1.0  0.2499958753472385  0.250005244366792  0.24999752191091965  1.0000
  Ir  Ir2       1.0  0.7500024010116593  0.7499987091900875  0.7500070419586264  1.0000
  Mn  Mn1       1.0  6.001221640281904e-08  0.9999998256322002  0.999999805165248  1.0000
  Se  Se1       1.0  0.2743867791923912  0.27438908622889346  0.7256134076051695  1.0000
  Se  Se2       1.0  0.7256145189247147  0.7256095661460361  0.27438391901379144  1.0000
  Se  Se3       1.0  0.7256137652093717  0.27439024395500117  0.2743855520085309  1.0000
  Se  Se4       1.0  0.27438514950046416  0.7256098614849528  0.7256141691503696  1.0000
  Se  Se5       1.0  0.2743890658783823  0.7256112073286204  0.2743868545405831  1.0000
  Se  Se6       1.0  0.7256123888668156  0.27438626656042275  0.7256117194076047  1.0000
