data_image0
_chemical_formula_structural       Ir2MnO6
_chemical_formula_sum              "Ir2 Mn1 O6"
_cell_length_a       5.05547798870806
_cell_length_b       5.055478003757474
_cell_length_c       5.055477996934317
_cell_angle_alpha    59.999998895254095
_cell_angle_beta     59.9999987883417
_cell_angle_gamma    59.99999776167582

_space_group_name_H-M_alt    "P 1"
_space_group_IT_number       1

loop_
  _space_group_symop_operation_xyz
  'x, y, z'

loop_
  _atom_site_type_symbol
  _atom_site_label
  _atom_site_symmetry_multiplicity
  _atom_site_fract_x
  _atom_site_fract_y
  _atom_site_fract_z
  _atom_site_occupancy
  Ir  Ir1       1.0  0.24999615780044468  0.24999936161557665  0.2500054802418342  1.0000
  Ir  Ir2       1.0  0.7499974764765833  0.7500001973620978  0.7500037579856262  1.0000
  Mn  Mn1       1.0  1.0289739623411537e-07  3.391653215225314e-08  0.9999997832391103  1.0000
  O   O1        1.0  0.2525145496630959  0.25251286302752773  0.7474852751172135  1.0000
  O   O2        1.0  0.7474873289004452  0.7474859182924303  0.2525122958279122  1.0000
  O   O3        1.0  0.7474873271598338  0.2525143173996987  0.2525123838208884  1.0000
  O   O4        1.0  0.2525138988896878  0.7474878604187496  0.7474844738234021  1.0000
  O   O5        1.0  0.25251486993254263  0.7474859992932458  0.2525121504109046  1.0000
  O   O6        1.0  0.7474882792478283  0.2525134652025627  0.7474843941865559  1.0000
