data_image0
_chemical_formula_structural       Ir2MnS6
_chemical_formula_sum              "Ir2 Mn1 S6"
_cell_length_a       5.775413012540536
_cell_length_b       5.7754128224393515
_cell_length_c       5.77541284167782
_cell_angle_alpha    59.999999584417665
_cell_angle_beta     60.00000019473012
_cell_angle_gamma    59.9999992582397

_space_group_name_H-M_alt    "P 1"
_space_group_IT_number       1

loop_
  _space_group_symop_operation_xyz
  'x, y, z'

loop_
  _atom_site_type_symbol
  _atom_site_label
  _atom_site_symmetry_multiplicity
  _atom_site_fract_x
  _atom_site_fract_y
  _atom_site_fract_z
  _atom_site_occupancy
  Ir  Ir1       1.0  0.2500009260931452  0.25000060937620017  0.24999652376191572  1.0000
  Ir  Ir2       1.0  0.7499988312743706  0.7499999216923242  0.7500017233209746  1.0000
  Mn  Mn1       1.0  3.493818664980732e-08  0.9999999851556686  8.345288163595194e-08  1.0000
  S   S1        1.0  0.2679427498127662  0.2679422081214892  0.7320588258023937  1.0000
  S   S2        1.0  0.7320574137153386  0.732057608298509  0.2679417416033824  1.0000
  S   S3        1.0  0.7320576686276069  0.26794299699187135  0.2679420157223112  1.0000
  S   S4        1.0  0.26794262975032834  0.7320564928528365  0.7320586163795919  1.0000
  S   S5        1.0  0.2679432799702711  0.7320578820900744  0.26794172416190387  1.0000
  S   S6        1.0  0.7320564492507389  0.2679423075588272  0.7320587543109913  1.0000
