data_image0
_chemical_formula_structural       Ir2NiS6
_chemical_formula_sum              "Ir2 Ni1 S6"
_cell_length_a       5.70160727428054
_cell_length_b       5.701607386945713
_cell_length_c       5.701607575047517
_cell_angle_alpha    59.99999836801177
_cell_angle_beta     59.99999884105457
_cell_angle_gamma    59.99999679763115

_space_group_name_H-M_alt    "P 1"
_space_group_IT_number       1

loop_
  _space_group_symop_operation_xyz
  'x, y, z'

loop_
  _atom_site_type_symbol
  _atom_site_label
  _atom_site_symmetry_multiplicity
  _atom_site_fract_x
  _atom_site_fract_y
  _atom_site_fract_z
  _atom_site_occupancy
  Ir  Ir1       1.0  0.24999968396575917  0.24999771897853915  0.250001884847637  1.0000
  Ir  Ir2       1.0  0.7500022684638058  0.7500023721537615  0.7499969516326686  1.0000
  Ni  Ni1       1.0  0.9999999225713405  0.9999999892596545  5.8115632684632794e-08  1.0000
  S   S1        1.0  0.2611874800459488  0.26118739953452125  0.7388123559627051  1.0000
  S   S2        1.0  0.738812031295683  0.7388128698876165  0.2611878960470295  1.0000
  S   S3        1.0  0.7388127670776659  0.2611861248174283  0.2611888690052279  1.0000
  S   S4        1.0  0.2611865127819432  0.7388137515079978  0.7388113567928511  1.0000
  S   S5        1.0  0.2611861105109041  0.7388133215830315  0.2611888035518416  1.0000
  S   S6        1.0  0.738813217894359  0.2611864516350535  0.7388118195981486  1.0000
