data_image0
_chemical_formula_structural       Ir2PO6
_chemical_formula_sum              "Ir2 P1 O6"
_cell_length_a       4.9737282937421865
_cell_length_b       4.973729629588077
_cell_length_c       4.973728124811867
_cell_angle_alpha    60.00000579280052
_cell_angle_beta     59.99999540498872
_cell_angle_gamma    60.000000962613925

_space_group_name_H-M_alt    "P 1"
_space_group_IT_number       1

loop_
  _space_group_symop_operation_xyz
  'x, y, z'

loop_
  _atom_site_type_symbol
  _atom_site_label
  _atom_site_symmetry_multiplicity
  _atom_site_fract_x
  _atom_site_fract_y
  _atom_site_fract_z
  _atom_site_occupancy
  Ir  Ir1       1.0  0.2500076899778608  0.25000065695442353  0.2499917057299254  1.0000
  Ir  Ir2       1.0  0.7500036521172335  0.7500021309219771  0.7499963570780254  1.0000
  P   P1        1.0  0.999999876713623  4.186126507298483e-07  0.9999998644002407  1.0000
  O   O1        1.0  0.23753481266897666  0.23753945244421235  0.7624645676753043  1.0000
  O   O2        1.0  0.7624622140360495  0.7624623824735779  0.2375368835425431  1.0000
  O   O3        1.0  0.7624585068106451  0.23753572243938278  0.23754002580883168  1.0000
  O   O4        1.0  0.23753842515780538  0.7624603651730425  0.762465206951676  1.0000
  O   O5        1.0  0.23753496356023904  0.7624638410868952  0.2375398893457354  1.0000
  O   O6        1.0  0.7624591118293821  0.23753518173905533  0.7624658188019043  1.0000
