data_image0
_chemical_formula_structural       Ir2PS6
_chemical_formula_sum              "Ir2 P1 S6"
_cell_length_a       5.684112440507542
_cell_length_b       5.684111989178112
_cell_length_c       5.684111453706569
_cell_angle_alpha    59.99998677366255
_cell_angle_beta     59.99998994260106
_cell_angle_gamma    59.99999195371606

_space_group_name_H-M_alt    "P 1"
_space_group_IT_number       1

loop_
  _space_group_symop_operation_xyz
  'x, y, z'

loop_
  _atom_site_type_symbol
  _atom_site_label
  _atom_site_symmetry_multiplicity
  _atom_site_fract_x
  _atom_site_fract_y
  _atom_site_fract_z
  _atom_site_occupancy
  Ir  Ir1       1.0  0.25000539713279424  0.24999738677587408  0.2499974729428689  1.0000
  Ir  Ir2       1.0  0.7499994540336888  0.7500004127550496  0.7500132584393499  1.0000
  P   P1        1.0  5.2222766254675724e-08  0.9999999956906279  5.6970633644560766e-08  1.0000
  S   S1        1.0  0.26596620605037874  0.2659650368976519  0.7340361235749361  1.0000
  S   S2        1.0  0.7340319049985229  0.7340366927743457  0.26595771090279013  1.0000
  S   S3        1.0  0.734033604240903  0.26596927401580794  0.2659618447583365  1.0000
  S   S4        1.0  0.2659625802328479  0.7340335610073951  0.7340349864876423  1.0000
  S   S5        1.0  0.265969656094679  0.7340359166680134  0.2659612555997763  1.0000
  S   S6        1.0  0.7340311548447708  0.26596172341821045  0.7340372725917398  1.0000
