data_image0
_chemical_formula_structural       Ir2PSe6
_chemical_formula_sum              "Ir2 P1 Se6"
_cell_length_a       6.070436279997242
_cell_length_b       6.070438871843856
_cell_length_c       6.0704308553008275
_cell_angle_alpha    60.000005661354315
_cell_angle_beta     59.999991190577525
_cell_angle_gamma    60.00003547028078

_space_group_name_H-M_alt    "P 1"
_space_group_IT_number       1

loop_
  _space_group_symop_operation_xyz
  'x, y, z'

loop_
  _atom_site_type_symbol
  _atom_site_label
  _atom_site_symmetry_multiplicity
  _atom_site_fract_x
  _atom_site_fract_y
  _atom_site_fract_z
  _atom_site_occupancy
  Ir  Ir1       1.0  0.25000876325210114  0.25001344884019255  0.24998251650334574  1.0000
  Ir  Ir2       1.0  0.7500007778725059  0.7499869276949352  0.750012034528388  1.0000
  P   P1        1.0  0.9999995691105424  0.9999999858769594  2.98283536442938e-07  1.0000
  Se  Se1       1.0  0.27980064583920206  0.27980707200789673  0.7201992140151448  1.0000
  Se  Se2       1.0  0.7201969161996056  0.7201946603205052  0.2798013092450768  1.0000
  Se  Se3       1.0  0.7201927607494365  0.2798100804754229  0.27979814336580255  1.0000
  Se  Se4       1.0  0.2798039835573178  0.7201887808718411  0.7202033495200969  1.0000
  Se  Se5       1.0  0.2798067361003318  0.7201917394963482  0.27980121524662876  1.0000
  Se  Se6       1.0  0.7201898475368161  0.27980730141281174  0.7202019221119678  1.0000
