data_image0
_chemical_formula_structural       Ir2PdO6
_chemical_formula_sum              "Ir2 Pd1 O6"
_cell_length_a       6.100396174208706
_cell_length_b       6.571714800258691
_cell_length_c       6.696316847569852
_cell_angle_alpha    49.91011412938842
_cell_angle_beta     59.035774021343826
_cell_angle_gamma    47.448298708461905

_space_group_name_H-M_alt    "P 1"
_space_group_IT_number       1

loop_
  _space_group_symop_operation_xyz
  'x, y, z'

loop_
  _atom_site_type_symbol
  _atom_site_label
  _atom_site_symmetry_multiplicity
  _atom_site_fract_x
  _atom_site_fract_y
  _atom_site_fract_z
  _atom_site_occupancy
  Ir  Ir1       1.0  0.9783319651069372  0.06980650491762999  0.49535770703993615  1.0000
  Ir  Ir2       1.0  0.7390434750783967  0.6965956050109766  0.5330514488955531  1.0000
  Pd  Pd1       1.0  0.17788119372775907  0.9562126319950378  0.9820616686655426  1.0000
  O   O1        1.0  0.04658350093325285  0.4085197070151733  0.7529080855796337  1.0000
  O   O2        1.0  0.06065722011507457  0.6380438623328257  0.2500565456714678  1.0000
  O   O3        1.0  0.7100591494644938  0.0417493240253521  0.46839537246897867  1.0000
  O   O4        1.0  0.2980490472531108  0.9119426658734894  0.6456156365331067  1.0000
  O   O5        1.0  0.26581633457469167  0.9029054326165753  0.2686687522513667  1.0000
  O   O6        1.0  0.7235776941270372  0.3742234644096771  0.6038884868709078  1.0000
