data_image0
_chemical_formula_structural       Ir2PdSe6
_chemical_formula_sum              "Ir2 Pd1 Se6"
_cell_length_a       6.197532819889926
_cell_length_b       6.19753264393709
_cell_length_c       6.197532586249491
_cell_angle_alpha    59.99999606346708
_cell_angle_beta     59.99999619367529
_cell_angle_gamma    59.99999670541084

_space_group_name_H-M_alt    "P 1"
_space_group_IT_number       1

loop_
  _space_group_symop_operation_xyz
  'x, y, z'

loop_
  _atom_site_type_symbol
  _atom_site_label
  _atom_site_symmetry_multiplicity
  _atom_site_fract_x
  _atom_site_fract_y
  _atom_site_fract_z
  _atom_site_occupancy
  Ir  Ir1       1.0  0.2500002600937744  0.24999866525466435  0.2500000771430905  1.0000
  Ir  Ir2       1.0  0.7499998693860694  0.7500013610966092  0.7500019428746973  1.0000
  Pd  Pd1       1.0  1.8631619612793015e-08  1.7324228579050889e-15  0.9999999293694646  1.0000
  Se  Se1       1.0  0.2809237637820276  0.28092293056627227  0.719076999965774  1.0000
  Se  Se2       1.0  0.719076213464393  0.7190770997374558  0.28092195261967157  1.0000
  Se  Se3       1.0  0.7190769454769029  0.28092345160293175  0.28092320228123174  1.0000
  Se  Se4       1.0  0.2809225281440759  0.7190769996274382  0.7190763289642275  1.0000
  Se  Se5       1.0  0.28092388102519333  0.7190773621269888  0.2809228141946521  1.0000
  Se  Se6       1.0  0.7190765212193192  0.2809221365839029  0.719076749974864  1.0000
