data_image0
_chemical_formula_structural       Ir2RuS6
_chemical_formula_sum              "Ir2 Ru1 S6"
_cell_length_a       5.873358773237051
_cell_length_b       5.873358652665654
_cell_length_c       5.873358737387129
_cell_angle_alpha    59.99999979215207
_cell_angle_beta     60.000000300668006
_cell_angle_gamma    59.99999991895684

_space_group_name_H-M_alt    "P 1"
_space_group_IT_number       1

loop_
  _space_group_symop_operation_xyz
  'x, y, z'

loop_
  _atom_site_type_symbol
  _atom_site_label
  _atom_site_symmetry_multiplicity
  _atom_site_fract_x
  _atom_site_fract_y
  _atom_site_fract_z
  _atom_site_occupancy
  Ir  Ir1       1.0  0.2500006393105715  0.249999637373143  0.24999974509637574  1.0000
  Ir  Ir2       1.0  0.7500001153878441  0.7500002383414143  0.7499992197621785  1.0000
  Ru  Ru1       1.0  0.9999999714231848  2.0852546998612364e-08  2.2590770483517465e-08  1.0000
  S   S1        1.0  0.27062890605507894  0.27062881543696987  0.7293711864219438  1.0000
  S   S2        1.0  0.7293708226653525  0.7293713897478299  0.2706291652784975  1.0000
  S   S3        1.0  0.7293708778720533  0.2706286496260408  0.27062915214209937  1.0000
  S   S4        1.0  0.2706288767880849  0.7293712949019205  0.7293711109019073  1.0000
  S   S5        1.0  0.27062874603502246  0.7293711372784442  0.27062904803768584  1.0000
  S   S6        1.0  0.729371040537636  0.2706288176757912  0.7293713487738246  1.0000
