data_image0
_chemical_formula_structural       Ir2RhS6
_chemical_formula_sum              "Ir2 Rh1 S6"
_cell_length_a       5.912347299618224
_cell_length_b       5.912347403514587
_cell_length_c       5.912347241339921
_cell_angle_alpha    59.99999960401311
_cell_angle_beta     59.99999942392877
_cell_angle_gamma    59.99999956989626

_space_group_name_H-M_alt    "P 1"
_space_group_IT_number       1

loop_
  _space_group_symop_operation_xyz
  'x, y, z'

loop_
  _atom_site_type_symbol
  _atom_site_label
  _atom_site_symmetry_multiplicity
  _atom_site_fract_x
  _atom_site_fract_y
  _atom_site_fract_z
  _atom_site_occupancy
  Ir  Ir1       1.0  0.249998010023113  0.25000059048359613  0.25000084092462943  1.0000
  Ir  Ir2       1.0  0.7499980707997732  0.7499991468557331  0.7500029394709867  1.0000
  Rh  Rh1       1.0  9.648723106284262e-08  2.6929546826218172e-08  0.9999998604883314  1.0000
  S   S1        1.0  0.2710368131276477  0.27103636786743357  0.7289634588821982  1.0000
  S   S2        1.0  0.7289641518400355  0.7289630483888451  0.27103571772378376  1.0000
  S   S3        1.0  0.7289641750837457  0.2710373605047645  0.2710354583861758  1.0000
  S   S4        1.0  0.27103688066711007  0.7289634063718357  0.728963488016976  1.0000
  S   S5        1.0  0.27103762820554106  0.7289634612928302  0.27103530455733343  1.0000
  S   S6        1.0  0.7289641595300002  0.27103660955857495  0.7289629168710646  1.0000
