data_image0
_chemical_formula_structural       Ir2RhO6
_chemical_formula_sum              "Ir2 Rh1 O6"
_cell_length_a       4.655278723513102
_cell_length_b       4.655278286982399
_cell_length_c       4.655279025245539
_cell_angle_alpha    60.000015869951525
_cell_angle_beta     60.000019385431045
_cell_angle_gamma    60.00001329121808

_space_group_name_H-M_alt    "P 1"
_space_group_IT_number       1

loop_
  _space_group_symop_operation_xyz
  'x, y, z'

loop_
  _atom_site_type_symbol
  _atom_site_label
  _atom_site_symmetry_multiplicity
  _atom_site_fract_x
  _atom_site_fract_y
  _atom_site_fract_z
  _atom_site_occupancy
  Ir  Ir1       1.0  0.25000062018232794  0.2500000444511557  0.24999940614544397  1.0000
  Ir  Ir2       1.0  0.7499998672679187  0.7500004727357806  0.7499975051974883  1.0000
  Rh  Rh1       1.0  0.9999988109724611  0.9999990502547637  1.2627149483769648e-06  1.0000
  O   O1        1.0  0.2725954651337469  0.27259558390369143  0.7274042528838334  1.0000
  O   O2        1.0  0.7274056002439041  0.7274054541967188  0.2725956555502084  1.0000
  O   O3        1.0  0.7274047312386595  0.272594422493547  0.27259566264263535  1.0000
  O   O4        1.0  0.27259529179119935  0.7274050844385798  0.7274052146303853  1.0000
  O   O5        1.0  0.27259481612913  0.7274050099381525  0.2725952885360345  1.0000
  O   O6        1.0  0.7274048203261972  0.27259486794709764  0.7274057318779206  1.0000
