data_image0
_chemical_formula_structural       Ir2SiSe6
_chemical_formula_sum              "Ir2 Si1 Se6"
_cell_length_a       6.098822949225064
_cell_length_b       6.098821797034394
_cell_length_c       6.0988243036973335
_cell_angle_alpha    60.00001331719014
_cell_angle_beta     60.00002109259468
_cell_angle_gamma    60.000007478217015

_space_group_name_H-M_alt    "P 1"
_space_group_IT_number       1

loop_
  _space_group_symop_operation_xyz
  'x, y, z'

loop_
  _atom_site_type_symbol
  _atom_site_label
  _atom_site_symmetry_multiplicity
  _atom_site_fract_x
  _atom_site_fract_y
  _atom_site_fract_z
  _atom_site_occupancy
  Ir  Ir1       1.0  0.25000183282303956  0.2499870622710996  0.25002310599375066  1.0000
  Ir  Ir2       1.0  0.7499980589130041  0.7500011814394599  0.7499986217675437  1.0000
  Si  Si1       1.0  0.9999999752059672  5.06057740525455e-07  0.9999991117024309  1.0000
  Se  Se1       1.0  0.27591489196512464  0.27591295564689616  0.7240772843749873  1.0000
  Se  Se2       1.0  0.7240824060741288  0.7240898793943003  0.2759153548756514  1.0000
  Se  Se3       1.0  0.7240824615276938  0.27591269866745105  0.2759150148157376  1.0000
  Se  Se4       1.0  0.2759151587665289  0.7240952471569728  0.7240768607523116  1.0000
  Se  Se5       1.0  0.27591370965279  0.7240863668340081  0.275914009160371  1.0000
  Se  Se6       1.0  0.7240914944591635  0.2759141066047845  0.7240806391057314  1.0000
