data_image0
_chemical_formula_structural       Ir2SO6
_chemical_formula_sum              "Ir2 S1 O6"
_cell_length_a       4.931235509443733
_cell_length_b       4.931235435153737
_cell_length_c       4.931235485424747
_cell_angle_alpha    59.99999874370992
_cell_angle_beta     59.99999873586504
_cell_angle_gamma    59.9999972526411

_space_group_name_H-M_alt    "P 1"
_space_group_IT_number       1

loop_
  _space_group_symop_operation_xyz
  'x, y, z'

loop_
  _atom_site_type_symbol
  _atom_site_label
  _atom_site_symmetry_multiplicity
  _atom_site_fract_x
  _atom_site_fract_y
  _atom_site_fract_z
  _atom_site_occupancy
  Ir  Ir1       1.0  0.2500018201715721  0.24999861753602315  0.25000122407986064  1.0000
  Ir  Ir2       1.0  0.7500018635128539  0.7499966051532423  0.7500030118255818  1.0000
  S   S1        1.0  0.9999998993799144  1.1921506674602406e-07  0.9999999217542712  1.0000
  O   O1        1.0  0.2339532602553685  0.23395590866563146  0.7660447654255884  1.0000
  O   O2        1.0  0.7660450854266503  0.766045942878078  0.23395330716688312  1.0000
  O   O3        1.0  0.766044467535692  0.23395571123840503  0.23395340401127454  1.0000
  O   O4        1.0  0.23395427884485853  0.7660461254034123  0.7660447818941672  1.0000
  O   O5        1.0  0.23395428829280138  0.7660459865135426  0.23395420974423878  1.0000
  O   O6        1.0  0.7660450917296919  0.23395508019763223  0.7660451778957069  1.0000
