data_image0
_chemical_formula_structural       Ir2SiO6
_chemical_formula_sum              "Ir2 Si1 O6"
_cell_length_a       4.980281073081148
_cell_length_b       4.980279866935006
_cell_length_c       4.980280358269538
_cell_angle_alpha    59.9999954897649
_cell_angle_beta     60.00000235491429
_cell_angle_gamma    59.99999887884446

_space_group_name_H-M_alt    "P 1"
_space_group_IT_number       1

loop_
  _space_group_symop_operation_xyz
  'x, y, z'

loop_
  _atom_site_type_symbol
  _atom_site_label
  _atom_site_symmetry_multiplicity
  _atom_site_fract_x
  _atom_site_fract_y
  _atom_site_fract_z
  _atom_site_occupancy
  Ir  Ir1       1.0  0.25000033118234805  0.25000305210841967  0.250003899730003  1.0000
  Ir  Ir2       1.0  0.7499990515170895  0.750005216704415  0.7500031627499678  1.0000
  Si  Si1       1.0  1.1524816007511518e-07  0.9999999950816292  0.9999997380194371  1.0000
  O   O1        1.0  0.24351148168698017  0.24351057873087523  0.7564876422295324  1.0000
  O   O2        1.0  0.7564906045989024  0.7564867762013399  0.24350938161551688  1.0000
  O   O3        1.0  0.7564861314571161  0.24351000022270117  0.2435112436892362  1.0000
  O   O4        1.0  0.24351025363444354  0.7564892950093378  0.7564877128090437  1.0000
  O   O5        1.0  0.2435124793329135  0.7564871900958953  0.24350934271996658  1.0000
  O   O6        1.0  0.7564895458160944  0.24350810157673977  0.7564878136567922  1.0000
