data_image0
_chemical_formula_structural       Ir2SeS6
_chemical_formula_sum              "Ir2 Se1 S6"
_cell_length_a       5.8789109776814135
_cell_length_b       5.8789110532881805
_cell_length_c       5.878910888854844
_cell_angle_alpha    59.99999905065116
_cell_angle_beta     60.0000006070827
_cell_angle_gamma    59.999997923807854

_space_group_name_H-M_alt    "P 1"
_space_group_IT_number       1

loop_
  _space_group_symop_operation_xyz
  'x, y, z'

loop_
  _atom_site_type_symbol
  _atom_site_label
  _atom_site_symmetry_multiplicity
  _atom_site_fract_x
  _atom_site_fract_y
  _atom_site_fract_z
  _atom_site_occupancy
  Ir  Ir1       1.0  0.24999978420362842  0.25000029976579663  0.2500001427335313  1.0000
  Ir  Ir2       1.0  0.7499999157170006  0.7500001409815357  0.7500003420979783  1.0000
  Se  Se1       1.0  0.9999999931748591  1.4583000868462999e-08  0.9999998260215363  1.0000
  S   S1        1.0  0.258433498786005  0.25843332969790456  0.7415665161622462  1.0000
  S   S2        1.0  0.7415666990053433  0.7415664777307063  0.25843321141053605  1.0000
  S   S3        1.0  0.7415665700958106  0.2584334765185861  0.2584333168651752  1.0000
  S   S4        1.0  0.2584330962200956  0.7415667350673754  0.7415668179677045  1.0000
  S   S5        1.0  0.258433504724103  0.7415664684532383  0.2584331983607926  1.0000
  S   S6        1.0  0.7415669432518779  0.2584330598151366  0.7415666236465762  1.0000
