data_image0
_chemical_formula_structural       Ir2SiS6
_chemical_formula_sum              "Ir2 Si1 S6"
_cell_length_a       5.696132338416109
_cell_length_b       5.696132382001876
_cell_length_c       5.6961323179107675
_cell_angle_alpha    59.99999927305481
_cell_angle_beta     59.999999098958114
_cell_angle_gamma    59.999999101882494

_space_group_name_H-M_alt    "P 1"
_space_group_IT_number       1

loop_
  _space_group_symop_operation_xyz
  'x, y, z'

loop_
  _atom_site_type_symbol
  _atom_site_label
  _atom_site_symmetry_multiplicity
  _atom_site_fract_x
  _atom_site_fract_y
  _atom_site_fract_z
  _atom_site_occupancy
  Ir  Ir1       1.0  0.24999968248545335  0.24999993314030564  0.25000007074274266  1.0000
  Ir  Ir2       1.0  0.7500000829517764  0.7499996424611167  0.7499998344056151  1.0000
  Si  Si1       1.0  3.1819813607283726e-08  3.225201184901858e-08  1.0097939451147829e-08  1.0000
  S   S1        1.0  0.26594533482815264  0.26594555158799027  0.7340545722105707  1.0000
  S   S2        1.0  0.7340546018849963  0.734054574447772  0.26594545662195745  1.0000
  S   S3        1.0  0.734054704109059  0.2659454605846523  0.26594544554437277  1.0000
  S   S4        1.0  0.26594549871799555  0.7340545299926554  0.7340546197839064  1.0000
  S   S5        1.0  0.2659453417318015  0.7340546565785785  0.26594555479013443  1.0000
  S   S6        1.0  0.7340547217687292  0.2659456242668415  0.7340544420896581  1.0000
