data_image0
_chemical_formula_structural       Ir2TiO6
_chemical_formula_sum              "Ir2 Ti1 O6"
_cell_length_a       4.902409185926335
_cell_length_b       4.902409072891095
_cell_length_c       4.902409223231651
_cell_angle_alpha    59.99999914696766
_cell_angle_beta     59.999999412888926
_cell_angle_gamma    59.99999965013335

_space_group_name_H-M_alt    "P 1"
_space_group_IT_number       1

loop_
  _space_group_symop_operation_xyz
  'x, y, z'

loop_
  _atom_site_type_symbol
  _atom_site_label
  _atom_site_symmetry_multiplicity
  _atom_site_fract_x
  _atom_site_fract_y
  _atom_site_fract_z
  _atom_site_occupancy
  Ir  Ir1       1.0  0.249999878061644  0.2500000376342651  0.25000014960385336  1.0000
  Ir  Ir2       1.0  0.7500000167310923  0.7500001029097927  0.7500000707925213  1.0000
  Ti  Ti1       1.0  2.3553735800027377e-09  6.538322154775914e-17  1.5140820329183693e-08  1.0000
  O   O1        1.0  0.2640591038514443  0.26405904723673485  0.735940874494003  1.0000
  O   O2        1.0  0.7359409110205286  0.7359409309210017  0.26405906720334454  1.0000
  O   O3        1.0  0.7359410144910039  0.2640590644690072  0.2640590897913591  1.0000
  O   O4        1.0  0.2640590426348171  0.735940921183483  0.7359408678279554  1.0000
  O   O5        1.0  0.2640591204234896  0.7359408197919443  0.26405900590954345  1.0000
  O   O6        1.0  0.735940907392885  0.2640590559374972  0.7359408968974015  1.0000
