data_image0
_chemical_formula_structural       Ir2TiSe6
_chemical_formula_sum              "Ir2 Ti1 Se6"
_cell_length_a       6.164379942584781
_cell_length_b       6.164380033193079
_cell_length_c       6.164379977234216
_cell_angle_alpha    60.000000653204175
_cell_angle_beta     60.00000027604511
_cell_angle_gamma    59.99999959955608

_space_group_name_H-M_alt    "P 1"
_space_group_IT_number       1

loop_
  _space_group_symop_operation_xyz
  'x, y, z'

loop_
  _atom_site_type_symbol
  _atom_site_label
  _atom_site_symmetry_multiplicity
  _atom_site_fract_x
  _atom_site_fract_y
  _atom_site_fract_z
  _atom_site_occupancy
  Ir  Ir1       1.0  0.2500035874898736  0.2500004171622564  0.2499972045485791  1.0000
  Ir  Ir2       1.0  0.7499991838550586  0.7500003594094478  0.7499973866580343  1.0000
  Ti  Ti1       1.0  0.9999997926254441  3.973621962629298e-09  3.7910062754108867e-07  1.0000
  Se  Se1       1.0  0.27555370923850986  0.275553076637099  0.7244469514969739  1.0000
  Se  Se2       1.0  0.7244457951506473  0.7244473462825687  0.2755548860833603  1.0000
  Se  Se3       1.0  0.7244452796058714  0.2755527153210556  0.27555412187350614  1.0000
  Se  Se4       1.0  0.27555443771336385  0.7244459055624137  0.7244472497924846  1.0000
  Se  Se5       1.0  0.2755531478707933  0.7244460992575013  0.2755536770918011  1.0000
  Se  Se6       1.0  0.7244450781610658  0.27555407332418563  0.724448136435709  1.0000
