data_image0
_chemical_formula_structural       Ir2VO6
_chemical_formula_sum              "Ir2 V1 O6"
_cell_length_a       5.096380146092816
_cell_length_b       5.096380255363557
_cell_length_c       5.09638078572689
_cell_angle_alpha    60.00000142346801
_cell_angle_beta     60.00000046502986
_cell_angle_gamma    59.99999990542615

_space_group_name_H-M_alt    "P 1"
_space_group_IT_number       1

loop_
  _space_group_symop_operation_xyz
  'x, y, z'

loop_
  _atom_site_type_symbol
  _atom_site_label
  _atom_site_symmetry_multiplicity
  _atom_site_fract_x
  _atom_site_fract_y
  _atom_site_fract_z
  _atom_site_occupancy
  Ir  Ir1       1.0  0.24999767799783598  0.25000230135987855  0.24999737873711209  1.0000
  Ir  Ir2       1.0  0.7499994344544164  0.7500022010834471  0.7499931123034246  1.0000
  V   V1        1.0  0.9999997758223743  4.686173889938976e-07  0.9999994912313036  1.0000
  O   O1        1.0  0.25433816681628285  0.2543368797116212  0.7456638732499203  1.0000
  O   O2        1.0  0.745663348461215  0.7456614153539419  0.25434025459405185  1.0000
  O   O3        1.0  0.7456636186838563  0.25433586142805775  0.25433955127549335  1.0000
  O   O4        1.0  0.2543389471962855  0.7456615588849806  0.7456637155457753  1.0000
  O   O5        1.0  0.2543364645056626  0.7456619440860464  0.25433943259377134  1.0000
  O   O6        1.0  0.7456625278784853  0.2543374011630806  0.7456632673240645  1.0000
