data_image0
_chemical_formula_structural       Ir2VSe6
_chemical_formula_sum              "Ir2 V1 Se6"
_cell_length_a       6.1313274937212014
_cell_length_b       6.131327420531776
_cell_length_c       6.1313274332190275
_cell_angle_alpha    60.00000025879757
_cell_angle_beta     59.99999932282389
_cell_angle_gamma    60.000000055290556

_space_group_name_H-M_alt    "P 1"
_space_group_IT_number       1

loop_
  _space_group_symop_operation_xyz
  'x, y, z'

loop_
  _atom_site_type_symbol
  _atom_site_label
  _atom_site_symmetry_multiplicity
  _atom_site_fract_x
  _atom_site_fract_y
  _atom_site_fract_z
  _atom_site_occupancy
  Ir  Ir1       1.0  0.2499996996924163  0.2500000697708912  0.2500004032248177  1.0000
  Ir  Ir2       1.0  0.7499999068570208  0.7500010402809566  0.7499994655414585  1.0000
  V   V1        1.0  3.4271977227713557e-10  0.999999982022321  4.306781155911243e-08  1.0000
  Se  Se1       1.0  0.27339379527369495  0.2733932011855979  0.7266064068826965  1.0000
  Se  Se2       1.0  0.7266065610176996  0.7266064167188679  0.2733936373700996  1.0000
  Se  Se3       1.0  0.7266065080137147  0.2733930748553012  0.2733938728255436  1.0000
  Se  Se4       1.0  0.2733933820597991  0.72660663094004  0.7266063393881725  1.0000
  Se  Se5       1.0  0.2733934060414111  0.726606459748316  0.27339359892221426  1.0000
  Se  Se6       1.0  0.7266067349098467  0.2733931261958281  0.7266062297394296  1.0000
