data_image0
_chemical_formula_structural       Ir2VS6
_chemical_formula_sum              "Ir2 V1 S6"
_cell_length_a       5.828313138876891
_cell_length_b       5.828313123996706
_cell_length_c       5.828313103643843
_cell_angle_alpha    60.00000081700194
_cell_angle_beta     60.00000035917477
_cell_angle_gamma    59.99999984655371

_space_group_name_H-M_alt    "P 1"
_space_group_IT_number       1

loop_
  _space_group_symop_operation_xyz
  'x, y, z'

loop_
  _atom_site_type_symbol
  _atom_site_label
  _atom_site_symmetry_multiplicity
  _atom_site_fract_x
  _atom_site_fract_y
  _atom_site_fract_z
  _atom_site_occupancy
  Ir  Ir1       1.0  0.24999888509419194  0.24999967798554826  0.2500008947814465  1.0000
  Ir  Ir2       1.0  0.7500005392305543  0.7500018666048383  0.7499999763201918  1.0000
  V   V1        1.0  5.5274247060369215e-08  0.9999999411616085  0.9999998765314227  1.0000
  S   S1        1.0  0.26873078493351577  0.26873013076883795  0.7312695518504331  1.0000
  S   S2        1.0  0.7312697001058549  0.7312692599161722  0.2687300059602183  1.0000
  S   S3        1.0  0.7312699438492173  0.26872998103524653  0.2687308356046797  1.0000
  S   S4        1.0  0.2687297897105398  0.7312698572418102  0.7312691177880059  1.0000
  S   S5        1.0  0.2687302830992597  0.7312698013075858  0.26873067538252415  1.0000
  S   S6        1.0  0.7312700214731702  0.2687294948157272  0.7312690473946426  1.0000
