data_image0
_chemical_formula_structural       K2CBr6
_chemical_formula_sum              "K2 C1 Br6"
_cell_length_a       7.546723300410534
_cell_length_b       7.5467228484489395
_cell_length_c       7.54672428721839
_cell_angle_alpha    59.99999778349417
_cell_angle_beta     59.99999654817285
_cell_angle_gamma    60.000004244236

_space_group_name_H-M_alt    "P 1"
_space_group_IT_number       1

loop_
  _space_group_symop_operation_xyz
  'x, y, z'

loop_
  _atom_site_type_symbol
  _atom_site_label
  _atom_site_symmetry_multiplicity
  _atom_site_fract_x
  _atom_site_fract_y
  _atom_site_fract_z
  _atom_site_occupancy
  K   K1        1.0  0.250000020865051  0.25000004479538335  0.24999994956837288  1.0000
  K   K2        1.0  0.7500000250408997  0.7500000175385686  0.7499999802342392  1.0000
  C   C1        1.0  4.218321824493419e-07  1.8500870521615487e-07  0.9999997482576153  1.0000
  Br  Br1       1.0  0.22176253919820663  0.22176250079592857  0.7782374582138283  1.0000
  Br  Br2       1.0  0.7782370666921964  0.7782378487882942  0.22176259567424417  1.0000
  Br  Br3       1.0  0.7782371223620514  0.22176253894840015  0.2217625265221857  1.0000
  Br  Br4       1.0  0.22176272779063597  0.7782373578514614  0.778237537546359  1.0000
  Br  Br5       1.0  0.22176297883324078  0.7782370352764792  0.22176239942647988  1.0000
  Br  Br6       1.0  0.7782370674680558  0.22176249799759257  0.7782378039839305  1.0000
