data_image0
_chemical_formula_structural       K2CCl6
_chemical_formula_sum              "K2 C1 Cl6"
_cell_length_a       7.287909803682298
_cell_length_b       7.287919617756433
_cell_length_c       7.2879023844143545
_cell_angle_alpha    60.000088291669634
_cell_angle_beta     60.0000669524981
_cell_angle_gamma    59.99993661611625

_space_group_name_H-M_alt    "P 1"
_space_group_IT_number       1

loop_
  _space_group_symop_operation_xyz
  'x, y, z'

loop_
  _atom_site_type_symbol
  _atom_site_label
  _atom_site_symmetry_multiplicity
  _atom_site_fract_x
  _atom_site_fract_y
  _atom_site_fract_z
  _atom_site_occupancy
  K   K1        1.0  0.25000035642497326  0.24999855716074873  0.2500012628455049  1.0000
  K   K2        1.0  0.7499987178288351  0.7499998643653834  0.7500002854560148  1.0000
  C   C1        1.0  9.382029206172965e-06  6.414502229534999e-06  0.9999924118400758  1.0000
  Cl  Cl1       1.0  0.21060798885636842  0.21060555661338087  0.789394655440081  1.0000
  Cl  Cl2       1.0  0.7893894990561885  0.7893892820620664  0.2106098259795154  1.0000
  Cl  Cl3       1.0  0.7893933172038808  0.21060692730464453  0.21060754102843904  1.0000
  Cl  Cl4       1.0  0.210603736266416  0.7893929697149199  0.7893946901866662  1.0000
  Cl  Cl5       1.0  0.21060561755527768  0.7893922050640781  0.21060737711941496  1.0000
  Cl  Cl6       1.0  0.7893904509093915  0.21060860783655463  0.78939167648524  1.0000
