data_image0
_chemical_formula_structural       K2CF6
_chemical_formula_sum              "K2 C1 F6"
_cell_length_a       5.532846429802993
_cell_length_b       5.532846355827296
_cell_length_c       5.532846411033537
_cell_angle_alpha    59.999992531600824
_cell_angle_beta     59.99999085359805
_cell_angle_gamma    59.99999575335238

_space_group_name_H-M_alt    "P 1"
_space_group_IT_number       1

loop_
  _space_group_symop_operation_xyz
  'x, y, z'

loop_
  _atom_site_type_symbol
  _atom_site_label
  _atom_site_symmetry_multiplicity
  _atom_site_fract_x
  _atom_site_fract_y
  _atom_site_fract_z
  _atom_site_occupancy
  K   K1        1.0  0.2500000040034064  0.24999995089759802  0.25000009178615074  1.0000
  K   K2        1.0  0.7500002515259411  0.7500000607702111  0.7499996593586669  1.0000
  C   C1        1.0  0.9999999203504987  3.829509466765196e-07  0.9999999278743326  1.0000
  F   F1        1.0  0.20489449039015156  0.2048945652497373  0.7951054863652789  1.0000
  F   F2        1.0  0.7951052413079082  0.7951052272727152  0.2048947880884982  1.0000
  F   F3        1.0  0.7951056235507912  0.20489428822148978  0.20489443143028618  1.0000
  F   F4        1.0  0.20489470325834974  0.7951053781263793  0.7951056266290869  1.0000
  F   F5        1.0  0.20489453993148285  0.7951054760731077  0.20489463457647328  1.0000
  F   F6        1.0  0.7951052195447146  0.20489468390516086  0.7951056717985764  1.0000
