data_image0
_chemical_formula_structural       K2CI6
_chemical_formula_sum              "K2 C1 I6"
_cell_length_a       8.182752326622447
_cell_length_b       8.182751858998593
_cell_length_c       8.18275191972342
_cell_angle_alpha    60.000002194152934
_cell_angle_beta     59.99999428081607
_cell_angle_gamma    60.00000030355122

_space_group_name_H-M_alt    "P 1"
_space_group_IT_number       1

loop_
  _space_group_symop_operation_xyz
  'x, y, z'

loop_
  _atom_site_type_symbol
  _atom_site_label
  _atom_site_symmetry_multiplicity
  _atom_site_fract_x
  _atom_site_fract_y
  _atom_site_fract_z
  _atom_site_occupancy
  K   K1        1.0  0.24999997113239125  0.24999996539319183  0.2500000811098953  1.0000
  K   K2        1.0  0.7500000365624504  0.7500000727948326  0.7499998844632645  1.0000
  C   C1        1.0  0.9999998864680828  0.9999999595880348  1.515189947406971e-07  1.0000
  I   I1        1.0  0.23042687354290806  0.2304262721271996  0.7695735102792051  1.0000
  I   I2        1.0  0.7695732718322439  0.7695736747597162  0.23042647487724063  1.0000
  I   I3        1.0  0.769573235746032  0.23042669648098718  0.23042653989972078  1.0000
  I   I4        1.0  0.23042675683958802  0.7695733447005155  0.7695734243988148  1.0000
  I   I5        1.0  0.23042648246675562  0.7695735258270234  0.23042675812138877  1.0000
  I   I6        1.0  0.7695735094781292  0.23042647494250812  0.7695731655993616  1.0000
