data_image0
_chemical_formula_structural       K2CoI6
_chemical_formula_sum              "K2 Co1 I6"
_cell_length_a       7.951942477207573
_cell_length_b       7.95194225462561
_cell_length_c       7.951942971418153
_cell_angle_alpha    59.99999860745947
_cell_angle_beta     59.99999962164452
_cell_angle_gamma    60.00000602901638

_space_group_name_H-M_alt    "P 1"
_space_group_IT_number       1

loop_
  _space_group_symop_operation_xyz
  'x, y, z'

loop_
  _atom_site_type_symbol
  _atom_site_label
  _atom_site_symmetry_multiplicity
  _atom_site_fract_x
  _atom_site_fract_y
  _atom_site_fract_z
  _atom_site_occupancy
  K   K1        1.0  0.25000001107083675  0.24999995714182877  0.2500000452415073  1.0000
  K   K2        1.0  0.7500000547422644  0.7500000115821663  0.749999934156095  1.0000
  Co  Co1       1.0  0.999999972835436  3.0803649847634996e-09  6.61169336846641e-08  1.0000
  I   I1        1.0  0.23966709832361965  0.23966699101155167  0.760332971131654  1.0000
  I   I2        1.0  0.7603328410234798  0.7603330608823313  0.2396670638679704  1.0000
  I   I3        1.0  0.7603331414071691  0.23966694760174373  0.2396669552067633  1.0000
  I   I4        1.0  0.2396669584207907  0.7603329887784046  0.7603329805984871  1.0000
  I   I5        1.0  0.23966683423254673  0.760332921090979  0.23966711415686148  1.0000
  I   I6        1.0  0.7603330879536204  0.2396671169412521  0.7603328634159059  1.0000
