data_image0
_chemical_formula_structural       K2CoF6
_chemical_formula_sum              "K2 Co1 F6"
_cell_length_a       5.946944524262912
_cell_length_b       5.946944397251974
_cell_length_c       5.9469442033765025
_cell_angle_alpha    59.999999753114665
_cell_angle_beta     59.9999964202701
_cell_angle_gamma    59.99999925595259

_space_group_name_H-M_alt    "P 1"
_space_group_IT_number       1

loop_
  _space_group_symop_operation_xyz
  'x, y, z'

loop_
  _atom_site_type_symbol
  _atom_site_label
  _atom_site_symmetry_multiplicity
  _atom_site_fract_x
  _atom_site_fract_y
  _atom_site_fract_z
  _atom_site_occupancy
  K   K1        1.0  0.24999997818607766  0.25000003400049203  0.25000008355667025  1.0000
  K   K2        1.0  0.7499998985885642  0.7500000875853076  0.7499999294665419  1.0000
  Co  Co1       1.0  3.220412756640243e-08  8.23780977903229e-09  1.6772819098101267e-08  1.0000
  F   F1        1.0  0.21816184604281705  0.21816190587769596  0.781838061995766  1.0000
  F   F2        1.0  0.7818381818893907  0.7818381292111046  0.21816188338490408  1.0000
  F   F3        1.0  0.7818380563285164  0.21816187561093062  0.21816190379729633  1.0000
  F   F4        1.0  0.21816189268168834  0.7818381574184176  0.7818381426093961  1.0000
  F   F5        1.0  0.21816198396045633  0.7818380041204492  0.21816202073080154  1.0000
  F   F6        1.0  0.7818381543172862  0.21816181060694873  0.7818380132885177  1.0000
