data_image0
_chemical_formula_structural       K2CoCl6
_chemical_formula_sum              "K2 Co1 Cl6"
_cell_length_a       6.931371663810739
_cell_length_b       6.931371602982385
_cell_length_c       6.931371615030534
_cell_angle_alpha    59.999999787155815
_cell_angle_beta     59.99999941594901
_cell_angle_gamma    59.99999922697834

_space_group_name_H-M_alt    "P 1"
_space_group_IT_number       1

loop_
  _space_group_symop_operation_xyz
  'x, y, z'

loop_
  _atom_site_type_symbol
  _atom_site_label
  _atom_site_symmetry_multiplicity
  _atom_site_fract_x
  _atom_site_fract_y
  _atom_site_fract_z
  _atom_site_occupancy
  K   K1        1.0  0.2500000101916501  0.24999998575791074  0.2499999875624081  1.0000
  K   K2        1.0  0.7499999866377617  0.7500000191172941  0.7499999840310716  1.0000
  Co  Co1       1.0  1.5683183793438834e-08  0.9999999929321643  0.9999999971350417  1.0000
  Cl  Cl1       1.0  0.22970080573505006  0.22970078980632405  0.7702992070294306  1.0000
  Cl  Cl2       1.0  0.7702991969842244  0.7702991973992918  0.22970081084995733  1.0000
  Cl  Cl3       1.0  0.7702991990049277  0.2297007903828398  0.22970080135087065  1.0000
  Cl  Cl4       1.0  0.22970076294153657  0.7702992091914885  0.7702992249597025  1.0000
  Cl  Cl5       1.0  0.22970080084720826  0.7702992137757192  0.22970079143592917  1.0000
  Cl  Cl6       1.0  0.7702992325310551  0.2297007964003621  0.7702992025141628  1.0000
