data_image0
_chemical_formula_structural       K2CoBr6
_chemical_formula_sum              "K2 Co1 Br6"
_cell_length_a       7.291808577298066
_cell_length_b       7.2918091083526955
_cell_length_c       7.291808386900403
_cell_angle_alpha    60.000001289148656
_cell_angle_beta     60.000001486258235
_cell_angle_gamma    60.00000265453467

_space_group_name_H-M_alt    "P 1"
_space_group_IT_number       1

loop_
  _space_group_symop_operation_xyz
  'x, y, z'

loop_
  _atom_site_type_symbol
  _atom_site_label
  _atom_site_symmetry_multiplicity
  _atom_site_fract_x
  _atom_site_fract_y
  _atom_site_fract_z
  _atom_site_occupancy
  K   K1        1.0  0.24999999739045162  0.24999998628976156  0.2500000147146218  1.0000
  K   K2        1.0  0.7499999747192506  0.7500000159762727  0.74999996534614  1.0000
  Co  Co1       1.0  8.779826617945858e-08  7.390315776159363e-08  5.547608103893628e-09  1.0000
  Br  Br1       1.0  0.24059104495400038  0.24059091917376493  0.759408988458033  1.0000
  Br  Br2       1.0  0.7594088638628042  0.7594089974317882  0.24059107979343858  1.0000
  Br  Br3       1.0  0.7594090059928087  0.24059096920839432  0.240590989728335  1.0000
  Br  Br4       1.0  0.24059099153340743  0.7594090565722823  0.759408939810212  1.0000
  Br  Br5       1.0  0.24059104084845281  0.7594089938773194  0.24059099226041072  1.0000
  Br  Br6       1.0  0.7594090132550154  0.24059097143713487  0.7594089968215031  1.0000
