data_image0
_chemical_formula_structural       K2CrI6
_chemical_formula_sum              "K2 Cr1 I6"
_cell_length_a       8.047081962343563
_cell_length_b       8.047081843010787
_cell_length_c       8.04708193748785
_cell_angle_alpha    59.99999969717063
_cell_angle_beta     60.000000138322086
_cell_angle_gamma    60.0000005018432

_space_group_name_H-M_alt    "P 1"
_space_group_IT_number       1

loop_
  _space_group_symop_operation_xyz
  'x, y, z'

loop_
  _atom_site_type_symbol
  _atom_site_label
  _atom_site_symmetry_multiplicity
  _atom_site_fract_x
  _atom_site_fract_y
  _atom_site_fract_z
  _atom_site_occupancy
  K   K1        1.0  0.24999998897909545  0.2499999877875797  0.24999997223670428  1.0000
  K   K2        1.0  0.7500000147674575  0.7500000135878794  0.7500000217755818  1.0000
  Cr  Cr1       1.0  2.869861495140796e-09  4.401287992173281e-17  1.720536656696748e-08  1.0000
  I   I1        1.0  0.23814765646085598  0.23814762831860392  0.7618523519280375  1.0000
  I   I2        1.0  0.7618523467783723  0.761852374578829  0.23814764654766984  1.0000
  I   I3        1.0  0.7618523631132539  0.2381476439518391  0.23814764291331916  1.0000
  I   I4        1.0  0.2381476354009007  0.7618523559016459  0.7618523420492883  1.0000
  I   I5        1.0  0.23814763848658838  0.7618523417675461  0.2381476627277444  1.0000
  I   I6        1.0  0.7618523480407956  0.23814765960791265  0.7618523436221858  1.0000
