data_image0
_chemical_formula_structural       K2CrBr6
_chemical_formula_sum              "K2 Cr1 Br6"
_cell_length_a       7.380137418418101
_cell_length_b       7.380137416092167
_cell_length_c       7.380137448510534
_cell_angle_alpha    59.99999966939028
_cell_angle_beta     59.99999989024834
_cell_angle_gamma    60.000000245944086

_space_group_name_H-M_alt    "P 1"
_space_group_IT_number       1

loop_
  _space_group_symop_operation_xyz
  'x, y, z'

loop_
  _atom_site_type_symbol
  _atom_site_label
  _atom_site_symmetry_multiplicity
  _atom_site_fract_x
  _atom_site_fract_y
  _atom_site_fract_z
  _atom_site_occupancy
  K   K1        1.0  0.25000000263490907  0.25000000034479336  0.25000000169590586  1.0000
  K   K2        1.0  0.7499999953878813  0.7500000010343801  0.7500000072811756  1.0000
  Cr  Cr1       1.0  0.9999999982618596  0.9999999817453349  7.097087693508578e-08  1.0000
  Br  Br1       1.0  0.23771193642485977  0.23771193450885486  0.7622880671571908  1.0000
  Br  Br2       1.0  0.7622880692311409  0.7622880768274087  0.23771193302474064  1.0000
  Br  Br3       1.0  0.7622880607804211  0.23771193932960644  0.2377119377775866  1.0000
  Br  Br4       1.0  0.23771195988983992  0.7622880504329621  0.7622880182594713  1.0000
  Br  Br5       1.0  0.23771193083054143  0.7622880714988962  0.23771193176865998  1.0000
  Br  Br6       1.0  0.7622880450030409  0.23771194481591235  0.7622880361205936  1.0000
