data_image0
_chemical_formula_structural       K2CrCl6
_chemical_formula_sum              "K2 Cr1 Cl6"
_cell_length_a       7.032661739675327
_cell_length_b       7.032661411034673
_cell_length_c       7.032661706205895
_cell_angle_alpha    59.99999569864343
_cell_angle_beta     59.99999867080518
_cell_angle_gamma    59.999997174076604

_space_group_name_H-M_alt    "P 1"
_space_group_IT_number       1

loop_
  _space_group_symop_operation_xyz
  'x, y, z'

loop_
  _atom_site_type_symbol
  _atom_site_label
  _atom_site_symmetry_multiplicity
  _atom_site_fract_x
  _atom_site_fract_y
  _atom_site_fract_z
  _atom_site_occupancy
  K   K1        1.0  0.24999988402839557  0.25000009779112964  0.2500000330411154  1.0000
  K   K2        1.0  0.7500000660860382  0.7499998788940404  0.7500000183122055  1.0000
  Cr  Cr1       1.0  2.9850255183818088e-09  1.567358661499423e-08  7.598689744244344e-08  1.0000
  Cl  Cl1       1.0  0.23430955970940856  0.23430949621199001  0.7656905188216531  1.0000
  Cl  Cl2       1.0  0.7656904471093025  0.7656904630580804  0.2343095512793704  1.0000
  Cl  Cl3       1.0  0.765690510978942  0.2343094671026975  0.23430954964596756  1.0000
  Cl  Cl4       1.0  0.2343095369700574  0.7656905165485144  0.7656903796321485  1.0000
  Cl  Cl5       1.0  0.23430947871082702  0.7656905920635054  0.2343094648670777  1.0000
  Cl  Cl6       1.0  0.7656905037921671  0.2343094943367901  0.7656904215865732  1.0000
