data_image0
_chemical_formula_structural       K2CrF6
_chemical_formula_sum              "K2 Cr1 F6"
_cell_length_a       5.980841773574128
_cell_length_b       5.980841448517039
_cell_length_c       5.9808421141988095
_cell_angle_alpha    59.999997300739366
_cell_angle_beta     59.99999786949651
_cell_angle_gamma    59.999998798854044

_space_group_name_H-M_alt    "P 1"
_space_group_IT_number       1

loop_
  _space_group_symop_operation_xyz
  'x, y, z'

loop_
  _atom_site_type_symbol
  _atom_site_label
  _atom_site_symmetry_multiplicity
  _atom_site_fract_x
  _atom_site_fract_y
  _atom_site_fract_z
  _atom_site_occupancy
  K   K1        1.0  0.2500000889062784  0.2499999562472677  0.2500000411631113  1.0000
  K   K2        1.0  0.7499999945317243  0.7500000018475123  0.7499998853810521  1.0000
  Cr  Cr1       1.0  0.999999917858013  5.52900660964183e-08  3.850604123325061e-08  1.0000
  F   F1        1.0  0.2202491684480778  0.22024902994504905  0.7797509046706104  1.0000
  F   F2        1.0  0.779750859800329  0.7797509199586103  0.22024917729230697  1.0000
  F   F3        1.0  0.7797508105467472  0.2202490764195299  0.2202491316206102  1.0000
  F   F4        1.0  0.2202490536720092  0.7797509369653147  0.7797509638324231  1.0000
  F   F5        1.0  0.22024913824370126  0.7797510059797412  0.2202489429810617  1.0000
  F   F6        1.0  0.7797508474697815  0.22024904836070866  0.7797509190943189  1.0000
