data_image0
_chemical_formula_structural       K2FeF6
_chemical_formula_sum              "K2 Fe1 F6"
_cell_length_a       5.986802281642109
_cell_length_b       5.986801741367713
_cell_length_c       5.986802850015376
_cell_angle_alpha    59.99999655921725
_cell_angle_beta     60.00000073567524
_cell_angle_gamma    59.99999454954107

_space_group_name_H-M_alt    "P 1"
_space_group_IT_number       1

loop_
  _space_group_symop_operation_xyz
  'x, y, z'

loop_
  _atom_site_type_symbol
  _atom_site_label
  _atom_site_symmetry_multiplicity
  _atom_site_fract_x
  _atom_site_fract_y
  _atom_site_fract_z
  _atom_site_occupancy
  K   K1        1.0  0.24999994657854577  0.2500000984517001  0.2500000090890311  1.0000
  K   K2        1.0  0.749999828694849  0.7499999639449549  0.7499999128643065  1.0000
  Fe  Fe1       1.0  4.9953490677434936e-08  0.9999999427192364  1.9074178646727382e-07  1.0000
  F   F1        1.0  0.22150432088680153  0.22150442392480996  0.7784956402455004  1.0000
  F   F2        1.0  0.7784955200074877  0.7784953663882117  0.22150457368769355  1.0000
  F   F3        1.0  0.7784959119688082  0.22150432279572926  0.22150443883171414  1.0000
  F   F4        1.0  0.22150441416990393  0.7784954757002449  0.7784954649148629  1.0000
  F   F5        1.0  0.22150404921834585  0.7784958167268935  0.22150451299557564  1.0000
  F   F6        1.0  0.7784958080515745  0.2215044972959804  0.778495407510119  1.0000
