data_image0
_chemical_formula_structural       K2FeI6
_chemical_formula_sum              "K2 Fe1 I6"
_cell_length_a       7.89683358324214
_cell_length_b       7.8968345514401825
_cell_length_c       7.896830923811654
_cell_angle_alpha    60.00001357999676
_cell_angle_beta     60.00001507101412
_cell_angle_gamma    60.00001160623769

_space_group_name_H-M_alt    "P 1"
_space_group_IT_number       1

loop_
  _space_group_symop_operation_xyz
  'x, y, z'

loop_
  _atom_site_type_symbol
  _atom_site_label
  _atom_site_symmetry_multiplicity
  _atom_site_fract_x
  _atom_site_fract_y
  _atom_site_fract_z
  _atom_site_occupancy
  K   K1        1.0  0.250000104937867  0.2499998854350875  0.2500000355382941  1.0000
  K   K2        1.0  0.7499999691133303  0.7500001231355466  0.7499999662710208  1.0000
  Fe  Fe1       1.0  0.9999996979666781  6.824096991849096e-08  1.3715745855115177e-07  1.0000
  I   I1        1.0  0.2229323535601556  0.22293293576252543  0.7770673068360864  1.0000
  I   I2        1.0  0.7770677241607333  0.7770666757697343  0.22293272830090527  1.0000
  I   I3        1.0  0.7770669592909688  0.22293297305671833  0.22293197017704056  1.0000
  I   I4        1.0  0.22293283127200425  0.7770674604690543  0.7770680102857037  1.0000
  I   I5        1.0  0.22293282713919313  0.7770674245691079  0.22293164417216063  1.0000
  I   I6        1.0  0.7770675039278775  0.22293242270468713  0.7770682489937697  1.0000
