data_image0
_chemical_formula_structural       K2FeBr6
_chemical_formula_sum              "K2 Fe1 Br6"
_cell_length_a       7.344127936394637
_cell_length_b       7.3441283104684025
_cell_length_c       7.344128695932852
_cell_angle_alpha    60.00000241098024
_cell_angle_beta     59.999998349257716
_cell_angle_gamma    60.00000699854355

_space_group_name_H-M_alt    "P 1"
_space_group_IT_number       1

loop_
  _space_group_symop_operation_xyz
  'x, y, z'

loop_
  _atom_site_type_symbol
  _atom_site_label
  _atom_site_symmetry_multiplicity
  _atom_site_fract_x
  _atom_site_fract_y
  _atom_site_fract_z
  _atom_site_occupancy
  K   K1        1.0  0.24999996690823442  0.2500000121108857  0.25000000152343815  1.0000
  K   K2        1.0  0.7500000021298024  0.7499999679589462  0.7500000520513195  1.0000
  Fe  Fe1       1.0  0.9999997773388039  7.83796161454654e-08  6.260936607927644e-08  1.0000
  Br  Br1       1.0  0.2213507205817948  0.22135094679446962  0.7786492870571728  1.0000
  Br  Br2       1.0  0.7786489540644825  0.7786487230921342  0.2213511886286732  1.0000
  Br  Br3       1.0  0.7786492501590974  0.2213510886435664  0.22135084946053402  1.0000
  Br  Br4       1.0  0.22135134042448074  0.7786486729639255  0.7786488950037035  1.0000
  Br  Br5       1.0  0.2213511352065302  0.7786490323837642  0.22135096141686297  1.0000
  Br  Br6       1.0  0.7786488193701512  0.22135148633756077  0.7786487333869767  1.0000
