data_image0
_chemical_formula_structural       K2GeI6
_chemical_formula_sum              "K2 Ge1 I6"
_cell_length_a       8.124538359282704
_cell_length_b       8.1245382568786
_cell_length_c       8.124538171863032
_cell_angle_alpha    60.000000330860175
_cell_angle_beta     60.000000495626644
_cell_angle_gamma    59.999998520833984

_space_group_name_H-M_alt    "P 1"
_space_group_IT_number       1

loop_
  _space_group_symop_operation_xyz
  'x, y, z'

loop_
  _atom_site_type_symbol
  _atom_site_label
  _atom_site_symmetry_multiplicity
  _atom_site_fract_x
  _atom_site_fract_y
  _atom_site_fract_z
  _atom_site_occupancy
  K   K1        1.0  0.25000000569836967  0.25000002021223966  0.250000032552278  1.0000
  K   K2        1.0  0.7499999916431885  0.7499999792336646  0.7499999750743167  1.0000
  Ge  Ge1       1.0  0.9999999924774723  0.9999999969850721  0.9999999720360696  1.0000
  I   I1        1.0  0.2524897042020178  0.2524898852743905  0.7475101946462203  1.0000
  I   I2        1.0  0.7475103004034285  0.7475101307536172  0.25248977274807727  1.0000
  I   I3        1.0  0.7475102192697441  0.2524897951414706  0.25248978952640977  1.0000
  I   I4        1.0  0.25248974854081935  0.7475102374686415  0.7475102224377743  1.0000
  I   I5        1.0  0.25248980295908613  0.7475101933376598  0.2524898167588283  1.0000
  I   I6        1.0  0.747510233202099  0.2524897578693965  0.7475102238866783  1.0000
