data_image0
_chemical_formula_structural       K2GeF6
_chemical_formula_sum              "K2 Ge1 F6"
_cell_length_a       5.951082306493978
_cell_length_b       5.95108259163269
_cell_length_c       5.951082255585879
_cell_angle_alpha    59.999999026368585
_cell_angle_beta     59.99999951796199
_cell_angle_gamma    60.00000036871381

_space_group_name_H-M_alt    "P 1"
_space_group_IT_number       1

loop_
  _space_group_symop_operation_xyz
  'x, y, z'

loop_
  _atom_site_type_symbol
  _atom_site_label
  _atom_site_symmetry_multiplicity
  _atom_site_fract_x
  _atom_site_fract_y
  _atom_site_fract_z
  _atom_site_occupancy
  K   K1        1.0  0.2499999888088027  0.2499999605376231  0.25000006257296964  1.0000
  K   K2        1.0  0.7500000574633716  0.7499999577596258  0.749999924327818  1.0000
  Ge  Ge1       1.0  0.9999999640149354  5.5566546280579536e-08  4.734172339615659e-08  1.0000
  F   F1        1.0  0.2175981919665658  0.21759824377241102  0.7824017601375329  1.0000
  F   F2        1.0  0.7824017128774375  0.7824016971630635  0.21759819205769676  1.0000
  F   F3        1.0  0.7824018657377516  0.2175983373498891  0.2175981640930457  1.0000
  F   F4        1.0  0.21759816749683364  0.7824018237937499  0.7824018725792655  1.0000
  F   F5        1.0  0.21759826797363535  0.7824017333379134  0.21759816033636015  1.0000
  F   F6        1.0  0.7824017388632469  0.2175982858023308  0.7824017689747079  1.0000
