data_image0
_chemical_formula_structural       K2GeBr6
_chemical_formula_sum              "K2 Ge1 Br6"
_cell_length_a       7.422083925265619
_cell_length_b       7.422083515765747
_cell_length_c       7.4220834970364855
_cell_angle_alpha    60.00000046307497
_cell_angle_beta     60.00000123454756
_cell_angle_gamma    60.00000166865239

_space_group_name_H-M_alt    "P 1"
_space_group_IT_number       1

loop_
  _space_group_symop_operation_xyz
  'x, y, z'

loop_
  _atom_site_type_symbol
  _atom_site_label
  _atom_site_symmetry_multiplicity
  _atom_site_fract_x
  _atom_site_fract_y
  _atom_site_fract_z
  _atom_site_occupancy
  K   K1        1.0  0.24999996486128623  0.25000003080140004  0.2499999789073656  1.0000
  K   K2        1.0  0.7500000153699293  0.7499999587431718  0.7500000334307231  1.0000
  Ge  Ge1       1.0  3.504242175266394e-07  0.9999999801983721  0.9999995261500025  1.0000
  Br  Br1       1.0  0.23820714285076888  0.23820730921802924  0.7617928048234166  1.0000
  Br  Br2       1.0  0.7617927213398445  0.7617928370894794  0.23820731380257942  1.0000
  Br  Br3       1.0  0.7617926775706695  0.23820722609210676  0.23820744080403736  1.0000
  Br  Br4       1.0  0.23820700725150146  0.7617929169151253  0.7617928095762364  1.0000
  Br  Br5       1.0  0.2382071989645938  0.7617927631660293  0.2382073402888538  1.0000
  Br  Br6       1.0  0.7617929015674146  0.23820698215838906  0.7617927825128145  1.0000
