data_image0
_chemical_formula_structural       K2HfF6
_chemical_formula_sum              "K2 Hf1 F6"
_cell_length_a       6.193004963887166
_cell_length_b       6.193004858227487
_cell_length_c       6.193005155791874
_cell_angle_alpha    59.999999222436166
_cell_angle_beta     59.99999925750119
_cell_angle_gamma    59.99999710555855

_space_group_name_H-M_alt    "P 1"
_space_group_IT_number       1

loop_
  _space_group_symop_operation_xyz
  'x, y, z'

loop_
  _atom_site_type_symbol
  _atom_site_label
  _atom_site_symmetry_multiplicity
  _atom_site_fract_x
  _atom_site_fract_y
  _atom_site_fract_z
  _atom_site_occupancy
  K   K1        1.0  0.2500000363882189  0.25000002572164653  0.24999996973786046  1.0000
  K   K2        1.0  0.7500000033586124  0.7500000198137811  0.7499999843332822  1.0000
  Hf  Hf1       1.0  0.9999999798101387  1.5821010257743536e-08  0.9999999811930012  1.0000
  F   F1        1.0  0.22862175515633373  0.22862174030666574  0.7713782435358705  1.0000
  F   F2        1.0  0.7713782317634331  0.771378239967097  0.22862175827656148  1.0000
  F   F3        1.0  0.7713782591526527  0.2286217311124506  0.22862175721142552  1.0000
  F   F4        1.0  0.228621708330158  0.771378290691464  0.7713782803814327  1.0000
  F   F5        1.0  0.22862173228875668  0.7713782645218032  0.2286217431920742  1.0000
  F   F6        1.0  0.7713782924675938  0.22862171970721124  0.7713782619453146  1.0000
