data_image0
_chemical_formula_structural       K2HfI6
_chemical_formula_sum              "K2 Hf1 I6"
_cell_length_a       8.308319402637983
_cell_length_b       8.30831923328876
_cell_length_c       8.308319538644286
_cell_angle_alpha    59.99999978048816
_cell_angle_beta     59.99999921573561
_cell_angle_gamma    59.99999895896742

_space_group_name_H-M_alt    "P 1"
_space_group_IT_number       1

loop_
  _space_group_symop_operation_xyz
  'x, y, z'

loop_
  _atom_site_type_symbol
  _atom_site_label
  _atom_site_symmetry_multiplicity
  _atom_site_fract_x
  _atom_site_fract_y
  _atom_site_fract_z
  _atom_site_occupancy
  K   K1        1.0  0.25000001505827335  0.2499999131059766  0.24999997603887886  1.0000
  K   K2        1.0  0.7499999739666582  0.7500000238228428  0.7500000333041215  1.0000
  Hf  Hf1       1.0  6.06748388460071e-08  0.9999999764140998  0.9999999297001787  1.0000
  I   I1        1.0  0.243243415607327  0.2432434406285359  0.7567565529690207  1.0000
  I   I2        1.0  0.7567565396814865  0.756756589169762  0.2432434304181387  1.0000
  I   I3        1.0  0.756756531809564  0.24324348049311706  0.2432434782812605  1.0000
  I   I4        1.0  0.24324340562121133  0.7567566112181678  0.7567565793674512  1.0000
  I   I5        1.0  0.2432434898585133  0.7567565415604363  0.24324345788463841  1.0000
  I   I6        1.0  0.7567565698637737  0.24324342927311357  0.756756562948799  1.0000
