data_image0
_chemical_formula_structural       K2HfBr6
_chemical_formula_sum              "K2 Hf1 Br6"
_cell_length_a       7.619848546019535
_cell_length_b       7.619848761198755
_cell_length_c       7.619848652809987
_cell_angle_alpha    60.00000048638201
_cell_angle_beta     60.000000124243975
_cell_angle_gamma    59.99999811673258

_space_group_name_H-M_alt    "P 1"
_space_group_IT_number       1

loop_
  _space_group_symop_operation_xyz
  'x, y, z'

loop_
  _atom_site_type_symbol
  _atom_site_label
  _atom_site_symmetry_multiplicity
  _atom_site_fract_x
  _atom_site_fract_y
  _atom_site_fract_z
  _atom_site_occupancy
  K   K1        1.0  0.2500000313426371  0.24999997812757865  0.25000000343908874  1.0000
  K   K2        1.0  0.7499999593870855  0.7500000018897028  0.7500000294482128  1.0000
  Hf  Hf1       1.0  7.999503417737094e-08  0.9999999373149613  0.9999997511827522  1.0000
  Br  Br1       1.0  0.24324235365108768  0.2432423985362182  0.7567575892135608  1.0000
  Br  Br2       1.0  0.7567575460478283  0.7567576136272391  0.24324236943945549  1.0000
  Br  Br3       1.0  0.7567576220218158  0.2432423533032314  0.24324239337236123  1.0000
  Br  Br4       1.0  0.24324225309207986  0.7567577826229911  0.7567577479798612  1.0000
  Br  Br5       1.0  0.24324232908385998  0.7567577000914294  0.24324230648340128  1.0000
  Br  Br6       1.0  0.7567578365743954  0.24324221884811867  0.7567578125259619  1.0000
