data_image0
_chemical_formula_structural       K2HfCl6
_chemical_formula_sum              "K2 Hf1 Cl6"
_cell_length_a       7.199354641465655
_cell_length_b       7.199354423006814
_cell_length_c       7.199354649626866
_cell_angle_alpha    59.999998580118884
_cell_angle_beta     59.99999912678974
_cell_angle_gamma    59.99999996169062

_space_group_name_H-M_alt    "P 1"
_space_group_IT_number       1

loop_
  _space_group_symop_operation_xyz
  'x, y, z'

loop_
  _atom_site_type_symbol
  _atom_site_label
  _atom_site_symmetry_multiplicity
  _atom_site_fract_x
  _atom_site_fract_y
  _atom_site_fract_z
  _atom_site_occupancy
  K   K1        1.0  0.2500000005703507  0.2499999610616617  0.2500000023309741  1.0000
  K   K2        1.0  0.7500000234344492  0.7500000056704567  0.7499999918380366  1.0000
  Hf  Hf1       1.0  0.9999998910491569  0.9999999659762562  2.2288975363373886e-07  1.0000
  Cl  Cl1       1.0  0.2411261500755917  0.24112616696080014  0.7588738587669636  1.0000
  Cl  Cl2       1.0  0.7588739002530113  0.7588739613840931  0.24112607199205183  1.0000
  Cl  Cl3       1.0  0.7588738923753509  0.24112609333932938  0.24112613860824586  1.0000
  Cl  Cl4       1.0  0.24112621545452007  0.7588737951381838  0.7588737680457147  1.0000
  Cl  Cl5       1.0  0.2411261345623745  0.7588738824858424  0.24112613028613425  1.0000
  Cl  Cl6       1.0  0.7588737965610508  0.24112616079969412  0.7588738192643459  1.0000
