data_image0
_chemical_formula_structural       K2IrCl6
_chemical_formula_sum              "K2 Ir1 Cl6"
_cell_length_a       7.075617755538419
_cell_length_b       7.075617613940501
_cell_length_c       7.075617978509304
_cell_angle_alpha    59.99999812035405
_cell_angle_beta     59.99999665449021
_cell_angle_gamma    59.99999862578146

_space_group_name_H-M_alt    "P 1"
_space_group_IT_number       1

loop_
  _space_group_symop_operation_xyz
  'x, y, z'

loop_
  _atom_site_type_symbol
  _atom_site_label
  _atom_site_symmetry_multiplicity
  _atom_site_fract_x
  _atom_site_fract_y
  _atom_site_fract_z
  _atom_site_occupancy
  K   K1        1.0  0.25000000455714255  0.2500000043666673  0.2500000008541151  1.0000
  K   K2        1.0  0.7499999724938591  0.7500000044453161  0.7500000076922156  1.0000
  Ir  Ir1       1.0  0.9999999134900267  2.942593081049628e-08  1.472595682816777e-07  1.0000
  Cl  Cl1       1.0  0.23437870664605656  0.2343786570181519  0.7656213083354949  1.0000
  Cl  Cl2       1.0  0.7656214099800006  0.7656211925476202  0.2343787043931951  1.0000
  Cl  Cl3       1.0  0.7656213101278887  0.23437875317091889  0.23437871085706802  1.0000
  Cl  Cl4       1.0  0.23437870683074646  0.7656213023763659  0.7656212204484958  1.0000
  Cl  Cl5       1.0  0.23437875974743483  0.7656212295708458  0.23437879596290484  1.0000
  Cl  Cl6       1.0  0.7656212530733543  0.2343788432858094  0.7656210905976858  1.0000
