data_image0
_chemical_formula_structural       K2IrF6
_chemical_formula_sum              "K2 Ir1 F6"
_cell_length_a       5.971102448663096
_cell_length_b       5.971102514657041
_cell_length_c       5.971102674106824
_cell_angle_alpha    59.99999756399961
_cell_angle_beta     59.99999857200879
_cell_angle_gamma    60.00000220292383

_space_group_name_H-M_alt    "P 1"
_space_group_IT_number       1

loop_
  _space_group_symop_operation_xyz
  'x, y, z'

loop_
  _atom_site_type_symbol
  _atom_site_label
  _atom_site_symmetry_multiplicity
  _atom_site_fract_x
  _atom_site_fract_y
  _atom_site_fract_z
  _atom_site_occupancy
  K   K1        1.0  0.24999997835121554  0.25000003151516575  0.24999999396320094  1.0000
  K   K2        1.0  0.7500000345798316  0.7499999119958035  0.7500001272347773  1.0000
  Ir  Ir1       1.0  5.684138829502225e-09  6.153360049173111e-09  3.594956419844954e-08  1.0000
  F   F1        1.0  0.23282412036952263  0.23282414506687993  0.7671758735953806  1.0000
  F   F2        1.0  0.7671759611800341  0.7671759522781068  0.23282404761550704  1.0000
  F   F3        1.0  0.7671756814873898  0.23282432653062826  0.23282415198210182  1.0000
  F   F4        1.0  0.23282424496827342  0.7671756559516245  0.7671757886505552  1.0000
  F   F5        1.0  0.2328242640522586  0.767175706017776  0.23282418550573786  1.0000
  F   F6        1.0  0.7671757161011189  0.2328242662088768  0.7671758070940942  1.0000
