data_image0
_chemical_formula_structural       K2IrI6
_chemical_formula_sum              "K2 Ir1 I6"
_cell_length_a       7.968098697589335
_cell_length_b       7.968098760395039
_cell_length_c       7.968099348186596
_cell_angle_alpha    59.99999709171274
_cell_angle_beta     59.99999434347096
_cell_angle_gamma    60.000002208136394

_space_group_name_H-M_alt    "P 1"
_space_group_IT_number       1

loop_
  _space_group_symop_operation_xyz
  'x, y, z'

loop_
  _atom_site_type_symbol
  _atom_site_label
  _atom_site_symmetry_multiplicity
  _atom_site_fract_x
  _atom_site_fract_y
  _atom_site_fract_z
  _atom_site_occupancy
  K   K1        1.0  0.24999995766095495  0.24999996709404976  0.2500000670354198  1.0000
  K   K2        1.0  0.7500000135633544  0.7500000273211062  0.749999958611147  1.0000
  Ir  Ir1       1.0  1.3541428619333313e-07  6.763066350082214e-08  0.9999999750327923  1.0000
  I   I1        1.0  0.23912781734520472  0.2391277082234105  0.7608722337660948  1.0000
  I   I2        1.0  0.7608720543420536  0.7608722370058087  0.23912791393213662  1.0000
  I   I3        1.0  0.7608723353580003  0.23912784997665465  0.23912799553601763  1.0000
  I   I4        1.0  0.2391277202839743  0.7608720998637544  0.7608719311238092  1.0000
  I   I5        1.0  0.23912770720109466  0.760872055304503  0.23912815651876265  1.0000
  I   I6        1.0  0.7608722539368806  0.2391279867595232  0.7608717675162435  1.0000
