data_image0
_chemical_formula_structural       K2IrBr6
_chemical_formula_sum              "K2 Ir1 Br6"
_cell_length_a       7.376458123999305
_cell_length_b       7.376457941817581
_cell_length_c       7.376458060649937
_cell_angle_alpha    60.00000108826271
_cell_angle_beta     59.99999996688957
_cell_angle_gamma    59.99999733095885

_space_group_name_H-M_alt    "P 1"
_space_group_IT_number       1

loop_
  _space_group_symop_operation_xyz
  'x, y, z'

loop_
  _atom_site_type_symbol
  _atom_site_label
  _atom_site_symmetry_multiplicity
  _atom_site_fract_x
  _atom_site_fract_y
  _atom_site_fract_z
  _atom_site_occupancy
  K   K1        1.0  0.2499999714155079  0.25000002173352553  0.24999999635545567  1.0000
  K   K2        1.0  0.7500000114280088  0.7500000037678903  0.7499999779702875  1.0000
  Ir  Ir1       1.0  1.6745024150097452e-07  0.9999999203035422  2.2550651773283538e-08  1.0000
  Br  Br1       1.0  0.24025816745775574  0.24025818139783453  0.7597418386970822  1.0000
  Br  Br2       1.0  0.7597416826779786  0.7597417162571922  0.24025832691063378  1.0000
  Br  Br3       1.0  0.7597419047019398  0.24025813492361064  0.2402581682474449  1.0000
  Br  Br4       1.0  0.24025804346428867  0.7597419852173453  0.7597417815198304  1.0000
  Br  Br5       1.0  0.24025811881597745  0.7597419003322007  0.24025818067349008  1.0000
  Br  Br6       1.0  0.7597419258996252  0.24025813679161184  0.759741706745437  1.0000
