data_image0
_chemical_formula_structural       K2MnCl6
_chemical_formula_sum              "K2 Mn1 Cl6"
_cell_length_a       7.0271785044439765
_cell_length_b       7.027178597522928
_cell_length_c       7.027178624674825
_cell_angle_alpha    60.00000024031567
_cell_angle_beta     60.00000120372465
_cell_angle_gamma    60.00000002152454

_space_group_name_H-M_alt    "P 1"
_space_group_IT_number       1

loop_
  _space_group_symop_operation_xyz
  'x, y, z'

loop_
  _atom_site_type_symbol
  _atom_site_label
  _atom_site_symmetry_multiplicity
  _atom_site_fract_x
  _atom_site_fract_y
  _atom_site_fract_z
  _atom_site_occupancy
  K   K1        1.0  0.2499999984141451  0.2500000398157038  0.25000000024512087  1.0000
  K   K2        1.0  0.7499999812198458  0.749999964331809  0.750000022690274  1.0000
  Mn  Mn1       1.0  0.999999862336349  3.834310979521393e-08  0.999999858972075  1.0000
  Cl  Cl1       1.0  0.23072600296634038  0.23072605603271465  0.7692739209102716  1.0000
  Cl  Cl2       1.0  0.7692740499306675  0.769273955086272  0.2307259566024585  1.0000
  Cl  Cl3       1.0  0.7692739398346118  0.2307260849168263  0.2307260074212605  1.0000
  Cl  Cl4       1.0  0.23072603880261766  0.7692739715167431  0.7692740937518613  1.0000
  Cl  Cl5       1.0  0.23072607877526904  0.769273877012899  0.23072605042886896  1.0000
  Cl  Cl6       1.0  0.7692740594709989  0.2307259667907042  0.7692741057156427  1.0000
