data_image0
_chemical_formula_structural       K2MnF6
_chemical_formula_sum              "K2 Mn1 F6"
_cell_length_a       5.985051112706961
_cell_length_b       5.985050305522278
_cell_length_c       5.985050809249974
_cell_angle_alpha    59.999996369031486
_cell_angle_beta     59.9999989377123
_cell_angle_gamma    59.99999766029707

_space_group_name_H-M_alt    "P 1"
_space_group_IT_number       1

loop_
  _space_group_symop_operation_xyz
  'x, y, z'

loop_
  _atom_site_type_symbol
  _atom_site_label
  _atom_site_symmetry_multiplicity
  _atom_site_fract_x
  _atom_site_fract_y
  _atom_site_fract_z
  _atom_site_occupancy
  K   K1        1.0  0.2500000095555235  0.24999992851944056  0.25000004346376586  1.0000
  K   K2        1.0  0.7500001028126666  0.7500001129727628  0.7499999045485811  1.0000
  Mn  Mn1       1.0  5.3826713796464856e-08  0.9999999427024743  0.9999999983937461  1.0000
  F   F1        1.0  0.2180008680842826  0.21800065707882865  0.7819992617100423  1.0000
  F   F2        1.0  0.78199916054461  0.7819993578109496  0.21800073646067927  1.0000
  F   F3        1.0  0.781999123884604  0.2180007180213834  0.21800087999389972  1.0000
  F   F4        1.0  0.21800080021057375  0.781999315285455  0.7819991562226625  1.0000
  F   F5        1.0  0.21800080777600547  0.7819992698418512  0.21800075015539272  1.0000
  F   F6        1.0  0.7819990955649176  0.21800073890890365  0.7819992769705769  1.0000
