data_image0
_chemical_formula_structural       K2MnI6
_chemical_formula_sum              "K2 Mn1 I6"
_cell_length_a       8.06279027410145
_cell_length_b       8.062790043825094
_cell_length_c       8.062789563936336
_cell_angle_alpha    60.00000490323011
_cell_angle_beta     60.00000241534695
_cell_angle_gamma    59.9999991378721

_space_group_name_H-M_alt    "P 1"
_space_group_IT_number       1

loop_
  _space_group_symop_operation_xyz
  'x, y, z'

loop_
  _atom_site_type_symbol
  _atom_site_label
  _atom_site_symmetry_multiplicity
  _atom_site_fract_x
  _atom_site_fract_y
  _atom_site_fract_z
  _atom_site_occupancy
  K   K1        1.0  0.25000002347228  0.2500000074226659  0.2500000583659319  1.0000
  K   K2        1.0  0.7499999674917691  0.7499999873307904  0.7499999339625507  1.0000
  Mn  Mn1       1.0  1.0198693320746683e-08  0.9999999908859476  5.659006960547866e-09  1.0000
  I   I1        1.0  0.24638449311349758  0.24638454288877742  0.7536154401569053  1.0000
  I   I2        1.0  0.7536154846138399  0.7536154700927848  0.24638457820198795  1.0000
  I   I3        1.0  0.7536154936469672  0.2463845183600118  0.24638450812169413  1.0000
  I   I4        1.0  0.24638455402418336  0.7536154566463293  0.7536154682073257  1.0000
  I   I5        1.0  0.24638451855187637  0.7536154160332823  0.24638460712141674  1.0000
  I   I6        1.0  0.7536154648171278  0.24638460150530608  0.7536154123394578  1.0000
