data_image0
_chemical_formula_structural       K2MnBr6
_chemical_formula_sum              "K2 Mn1 Br6"
_cell_length_a       7.391998604947214
_cell_length_b       7.391997758879786
_cell_length_c       7.391997253410835
_cell_angle_alpha    60.0000093866328
_cell_angle_beta     60.00000489220225
_cell_angle_gamma    60.000005786013574

_space_group_name_H-M_alt    "P 1"
_space_group_IT_number       1

loop_
  _space_group_symop_operation_xyz
  'x, y, z'

loop_
  _atom_site_type_symbol
  _atom_site_label
  _atom_site_symmetry_multiplicity
  _atom_site_fract_x
  _atom_site_fract_y
  _atom_site_fract_z
  _atom_site_occupancy
  K   K1        1.0  0.24999998380195596  0.2500000112510983  0.250000008784835  1.0000
  K   K2        1.0  0.7499999927621397  0.7500000221553277  0.7499999763021787  1.0000
  Mn  Mn1       1.0  2.65504601079515e-07  2.485278352459691e-07  0.9999997727457087  1.0000
  Br  Br1       1.0  0.22978052247886166  0.2297802386255206  0.7702197186369886  1.0000
  Br  Br2       1.0  0.7702195739768488  0.7702195147728922  0.22978036274198035  1.0000
  Br  Br3       1.0  0.7702195814116415  0.22978039460295113  0.2297805999421531  1.0000
  Br  Br4       1.0  0.22978031682846142  0.7702195410491909  0.7702194298939349  1.0000
  Br  Br5       1.0  0.22978032043826901  0.7702196756359394  0.22978053174216828  1.0000
  Br  Br6       1.0  0.7702194724456447  0.229780351143078  0.770219602611216  1.0000
