data_image0
_chemical_formula_structural       K2MoI6
_chemical_formula_sum              "K2 Mo1 I6"
_cell_length_a       8.081888812727126
_cell_length_b       8.081888779288006
_cell_length_c       8.081887959963108
_cell_angle_alpha    60.000001327812114
_cell_angle_beta     60.00000512830039
_cell_angle_gamma    59.99999583052677

_space_group_name_H-M_alt    "P 1"
_space_group_IT_number       1

loop_
  _space_group_symop_operation_xyz
  'x, y, z'

loop_
  _atom_site_type_symbol
  _atom_site_label
  _atom_site_symmetry_multiplicity
  _atom_site_fract_x
  _atom_site_fract_y
  _atom_site_fract_z
  _atom_site_occupancy
  K   K1        1.0  0.25000007224889187  0.24999998355653882  0.24999981422524928  1.0000
  K   K2        1.0  0.7499999314570577  0.7500000264405731  0.7500001747637406  1.0000
  Mo  Mo1       1.0  0.9999999205273966  0.9999997969338481  0.9999999111251351  1.0000
  I   I1        1.0  0.24498745446997464  0.24498746441575553  0.7550125571662594  1.0000
  I   I2        1.0  0.7550127847024136  0.7550127350087336  0.2449871884424563  1.0000
  I   I3        1.0  0.7550126821830235  0.2449873241867995  0.24498729372466793  1.0000
  I   I4        1.0  0.24498716205003462  0.7550127570350164  0.7550129126152632  1.0000
  I   I5        1.0  0.24498722833943007  0.7550127900890459  0.2449871250937013  1.0000
  I   I6        1.0  0.7550127694510013  0.2449871304983343  0.755013015494025  1.0000
