data_image0
_chemical_formula_structural       K2MoCl6
_chemical_formula_sum              "K2 Mo1 Cl6"
_cell_length_a       7.145019914544484
_cell_length_b       7.145019991548303
_cell_length_c       7.1450197606975845
_cell_angle_alpha    60.0000028713238
_cell_angle_beta     60.00000090129213
_cell_angle_gamma    59.99999722251917

_space_group_name_H-M_alt    "P 1"
_space_group_IT_number       1

loop_
  _space_group_symop_operation_xyz
  'x, y, z'

loop_
  _atom_site_type_symbol
  _atom_site_label
  _atom_site_symmetry_multiplicity
  _atom_site_fract_x
  _atom_site_fract_y
  _atom_site_fract_z
  _atom_site_occupancy
  K   K1        1.0  0.25000004531739844  0.2500000002125201  0.24999997954944408  1.0000
  K   K2        1.0  0.7499999516197395  0.7500000057799404  0.7499999890552347  1.0000
  Mo  Mo1       1.0  0.9999999118824118  0.9999999880011349  0.9999998807094995  1.0000
  Cl  Cl1       1.0  0.2380171336493055  0.23801726571343068  0.7619828289958135  1.0000
  Cl  Cl2       1.0  0.7619829200778465  0.76198284141233  0.23801713342517497  1.0000
  Cl  Cl3       1.0  0.7619829725293984  0.23801706215850127  0.23801705714342472  1.0000
  Cl  Cl4       1.0  0.23801700341537155  0.7619829146938574  0.7619829841130814  1.0000
  Cl  Cl5       1.0  0.23801711645881815  0.7619828392246525  0.23801718421040235  1.0000
  Cl  Cl6       1.0  0.7619829470826283  0.2380170639203816  0.7619829382747307  1.0000
