data_image0
_chemical_formula_structural       K2MoBr6
_chemical_formula_sum              "K2 Mo1 Br6"
_cell_length_a       7.49077118736969
_cell_length_b       7.490771720451134
_cell_length_c       7.490771890066843
_cell_angle_alpha    59.999999847492425
_cell_angle_beta     60.00000012225628
_cell_angle_gamma    60.00000689553262

_space_group_name_H-M_alt    "P 1"
_space_group_IT_number       1

loop_
  _space_group_symop_operation_xyz
  'x, y, z'

loop_
  _atom_site_type_symbol
  _atom_site_label
  _atom_site_symmetry_multiplicity
  _atom_site_fract_x
  _atom_site_fract_y
  _atom_site_fract_z
  _atom_site_occupancy
  K   K1        1.0  0.2500000110599755  0.24999999752254187  0.25000002361748164  1.0000
  K   K2        1.0  0.7499999647929914  0.7500000219977094  0.7500000195771459  1.0000
  Mo  Mo1       1.0  1.9618179528122743e-07  0.9999996010588166  8.649859160032522e-07  1.0000
  Br  Br1       1.0  0.2427965584495797  0.2427965257827591  0.757203466222892  1.0000
  Br  Br2       1.0  0.757203643020328  0.7572036261729025  0.24279639928054184  1.0000
  Br  Br3       1.0  0.7572034224053701  0.24279659028112535  0.2427967291760257  1.0000
  Br  Br4       1.0  0.24279675093297962  0.7572032853587102  0.7572030108761097  1.0000
  Br  Br5       1.0  0.24279637949791444  0.7572035448454457  0.24279655887614415  1.0000
  Br  Br6       1.0  0.7572030685028575  0.24279683274084418  0.7572029217482353  1.0000
