data_image0
_chemical_formula_structural       K2MoF6
_chemical_formula_sum              "K2 Mo1 F6"
_cell_length_a       6.036237757838647
_cell_length_b       6.036237875185878
_cell_length_c       6.036238036872116
_cell_angle_alpha    59.99999819092088
_cell_angle_beta     59.999998342477596
_cell_angle_gamma    60.00000095131787

_space_group_name_H-M_alt    "P 1"
_space_group_IT_number       1

loop_
  _space_group_symop_operation_xyz
  'x, y, z'

loop_
  _atom_site_type_symbol
  _atom_site_label
  _atom_site_symmetry_multiplicity
  _atom_site_fract_x
  _atom_site_fract_y
  _atom_site_fract_z
  _atom_site_occupancy
  K   K1        1.0  0.24999998488973774  0.250000029477874  0.2500000258787289  1.0000
  K   K2        1.0  0.7499999979542685  0.74999995857845  0.7499999188086067  1.0000
  Mo  Mo1       1.0  0.9999999959420262  1.2173922081728214e-08  4.398519412764444e-08  1.0000
  F   F1        1.0  0.23464802305651822  0.23464807264601406  0.7653519557724461  1.0000
  F   F2        1.0  0.7653518951716171  0.7653519600480241  0.23464808836366047  1.0000
  F   F3        1.0  0.7653518814543888  0.23464813894018535  0.23464820091531577  1.0000
  F   F4        1.0  0.23464818737612045  0.7653518207103204  0.765351756398202  1.0000
  F   F5        1.0  0.23464817638454008  0.7653518442667685  0.234648220793061  1.0000
  F   F6        1.0  0.7653518702630604  0.23464814176056842  0.7653518056599173  1.0000
