data_image0
_chemical_formula_structural       K2NbI6
_chemical_formula_sum              "K2 Nb1 I6"
_cell_length_a       8.235126070430354
_cell_length_b       8.235126085801713
_cell_length_c       8.235125529588782
_cell_angle_alpha    60.000003629395124
_cell_angle_beta     60.00000095307748
_cell_angle_gamma    59.9999983010759

_space_group_name_H-M_alt    "P 1"
_space_group_IT_number       1

loop_
  _space_group_symop_operation_xyz
  'x, y, z'

loop_
  _atom_site_type_symbol
  _atom_site_label
  _atom_site_symmetry_multiplicity
  _atom_site_fract_x
  _atom_site_fract_y
  _atom_site_fract_z
  _atom_site_occupancy
  K   K1        1.0  0.2499999713773565  0.24999993024018724  0.25000024808794885  1.0000
  K   K2        1.0  0.7500000256636031  0.7500000450352476  0.7499997756817979  1.0000
  Nb  Nb1       1.0  1.0513319517518573e-07  5.056548295660921e-08  0.9999994388550525  1.0000
  I   I1        1.0  0.24243434444879963  0.24243447830723328  0.7575655707791898  1.0000
  I   I2        1.0  0.7575655184241953  0.7575654493771494  0.2424344625112575  1.0000
  I   I3        1.0  0.7575656216590142  0.2424344424972566  0.24243429410039646  1.0000
  I   I4        1.0  0.24243410909190513  0.7575658941727783  0.7575659577655767  1.0000
  I   I5        1.0  0.24243443879743307  0.7575655802589506  0.2424343596155237  1.0000
  I   I6        1.0  0.7575658747125468  0.2424341228551231  0.7575658897197444  1.0000
