data_image0
_chemical_formula_structural       K2NbBr6
_chemical_formula_sum              "K2 Nb1 Br6"
_cell_length_a       7.571334288956652
_cell_length_b       7.571334414914703
_cell_length_c       7.571334517549943
_cell_angle_alpha    59.9999964161644
_cell_angle_beta     59.9999985507579
_cell_angle_gamma    60.00000366316656

_space_group_name_H-M_alt    "P 1"
_space_group_IT_number       1

loop_
  _space_group_symop_operation_xyz
  'x, y, z'

loop_
  _atom_site_type_symbol
  _atom_site_label
  _atom_site_symmetry_multiplicity
  _atom_site_fract_x
  _atom_site_fract_y
  _atom_site_fract_z
  _atom_site_occupancy
  K   K1        1.0  0.2499999823349239  0.24999998055051426  0.24999999609469142  1.0000
  K   K2        1.0  0.7499999913540722  0.7500000419432212  0.749999980681367  1.0000
  Nb  Nb1       1.0  0.9999999548366748  0.9999997557412308  2.1735346496771899e-07  1.0000
  Br  Br1       1.0  0.24254426468691379  0.24254429762839463  0.7574557918391287  1.0000
  Br  Br2       1.0  0.757455919800809  0.7574559205958834  0.24254407412626855  1.0000
  Br  Br3       1.0  0.7574555875811445  0.2425444188674326  0.2425444536251745  1.0000
  Br  Br4       1.0  0.2425444820831778  0.7574554758352992  0.7574555588702926  1.0000
  Br  Br5       1.0  0.2425443369606484  0.7574556436981743  0.24254435305172137  1.0000
  Br  Br6       1.0  0.757455478425015  0.2425444693815861  0.7574555717328664  1.0000
