data_image0
_chemical_formula_structural       K2NbF6
_chemical_formula_sum              "K2 Nb1 F6"
_cell_length_a       6.031603369061229
_cell_length_b       6.031603809866617
_cell_length_c       6.031604654725763
_cell_angle_alpha    59.99999576438046
_cell_angle_beta     59.999993586636165
_cell_angle_gamma    59.99999339926978

_space_group_name_H-M_alt    "P 1"
_space_group_IT_number       1

loop_
  _space_group_symop_operation_xyz
  'x, y, z'

loop_
  _atom_site_type_symbol
  _atom_site_label
  _atom_site_symmetry_multiplicity
  _atom_site_fract_x
  _atom_site_fract_y
  _atom_site_fract_z
  _atom_site_occupancy
  K   K1        1.0  0.24999999913892618  0.2499999589864338  0.2500000581478977  1.0000
  K   K2        1.0  0.7499999645397984  0.7500000617389936  0.7499999277251771  1.0000
  Nb  Nb1       1.0  3.231283713733102e-08  1.2183274481045066e-08  0.9999999114346005  1.0000
  F   F1        1.0  0.23540252885002544  0.23540243224008942  0.7645975984368221  1.0000
  F   F2        1.0  0.7645975382271639  0.7645975539660499  0.23540250884242309  1.0000
  F   F3        1.0  0.7645974313748806  0.23540256436468374  0.23540262886269947  1.0000
  F   F4        1.0  0.2354027424485872  0.7645972451839431  0.7645973442629357  1.0000
  F   F5        1.0  0.23540256183876235  0.7645974207295401  0.23540266267410787  1.0000
  F   F6        1.0  0.7645972049999367  0.2354027827450421  0.7645972771905268  1.0000
