data_image0
_chemical_formula_structural       K2NbCl6
_chemical_formula_sum              "K2 Nb1 Cl6"
_cell_length_a       7.137303022386546
_cell_length_b       7.137302787569951
_cell_length_c       7.137303184478155
_cell_angle_alpha    59.99999898997141
_cell_angle_beta     59.9999973409435
_cell_angle_gamma    59.99999818942258

_space_group_name_H-M_alt    "P 1"
_space_group_IT_number       1

loop_
  _space_group_symop_operation_xyz
  'x, y, z'

loop_
  _atom_site_type_symbol
  _atom_site_label
  _atom_site_symmetry_multiplicity
  _atom_site_fract_x
  _atom_site_fract_y
  _atom_site_fract_z
  _atom_site_occupancy
  K   K1        1.0  0.2500000163962152  0.24999998488606148  0.24999999420574534  1.0000
  K   K2        1.0  0.7499999816795927  0.7500000164333649  0.7500000401266613  1.0000
  Nb  Nb1       1.0  3.251519103398549e-07  5.8343230939740586e-08  2.4118905672250843e-07  1.0000
  Cl  Cl1       1.0  0.2407013410065403  0.24070139932836299  0.7592985908153456  1.0000
  Cl  Cl2       1.0  0.759298543397214  0.759298511044271  0.24070148417855025  1.0000
  Cl  Cl3       1.0  0.7592985988171224  0.24070132451068854  0.24070145117929884  1.0000
  Cl  Cl4       1.0  0.2407014621778559  0.7592984880512416  0.7592984218979609  1.0000
  Cl  Cl5       1.0  0.24070133238588676  0.759298606418062  0.24070146257623992  1.0000
  Cl  Cl6       1.0  0.7592984027139068  0.2407016111144885  0.7592983261284474  1.0000
