data_image0
_chemical_formula_structural       K2NiI6
_chemical_formula_sum              "K2 Ni1 I6"
_cell_length_a       7.840146927976625
_cell_length_b       7.8401466076873865
_cell_length_c       7.840147025448079
_cell_angle_alpha    60.00000358716853
_cell_angle_beta     59.99999802426258
_cell_angle_gamma    60.000001543331216

_space_group_name_H-M_alt    "P 1"
_space_group_IT_number       1

loop_
  _space_group_symop_operation_xyz
  'x, y, z'

loop_
  _atom_site_type_symbol
  _atom_site_label
  _atom_site_symmetry_multiplicity
  _atom_site_fract_x
  _atom_site_fract_y
  _atom_site_fract_z
  _atom_site_occupancy
  K   K1        1.0  0.2500000183066683  0.24999998695418138  0.25000003733668813  1.0000
  K   K2        1.0  0.7499999993694761  0.7499999905432958  0.7499999961208401  1.0000
  Ni  Ni1       1.0  2.354954150255634e-08  2.655648150615011e-08  1.4203569257006814e-07  1.0000
  I   I1        1.0  0.24615965655009311  0.2461595609514706  0.7538403835660253  1.0000
  I   I2        1.0  0.7538403406981636  0.7538405352690545  0.24615967217115964  1.0000
  I   I3        1.0  0.7538404504267225  0.24615952340549338  0.24615938218261005  1.0000
  I   I4        1.0  0.24615976196096087  0.7538402322673394  0.7538404696820582  1.0000
  I   I5        1.0  0.24615938274598273  0.7538405765159782  0.24615967109374845  1.0000
  I   I6        1.0  0.7538403905312939  0.24615955094743425  0.7538402310121749  1.0000
