data_image0
_chemical_formula_structural       K2NiBr6
_chemical_formula_sum              "K2 Ni1 Br6"
_cell_length_a       7.208472612409922
_cell_length_b       7.208473140069789
_cell_length_c       7.208472674707278
_cell_angle_alpha    60.000000463919534
_cell_angle_beta     59.99999907787623
_cell_angle_gamma    60.000000123139365

_space_group_name_H-M_alt    "P 1"
_space_group_IT_number       1

loop_
  _space_group_symop_operation_xyz
  'x, y, z'

loop_
  _atom_site_type_symbol
  _atom_site_label
  _atom_site_symmetry_multiplicity
  _atom_site_fract_x
  _atom_site_fract_y
  _atom_site_fract_z
  _atom_site_occupancy
  K   K1        1.0  0.2499999976915215  0.25000001143255207  0.24999997895933854  1.0000
  K   K2        1.0  0.7499999880108014  0.7499999918217797  0.749999967584118  1.0000
  Ni  Ni1       1.0  7.049590802725e-08  1.3932087622938534e-07  0.9999997480424252  1.0000
  Br  Br1       1.0  0.24017648918392942  0.2401764561307224  0.7598235044662252  1.0000
  Br  Br2       1.0  0.7598234333349578  0.7598234723660676  0.24017650272418284  1.0000
  Br  Br3       1.0  0.7598234706267663  0.24017655040686775  0.24017645717134484  1.0000
  Br  Br4       1.0  0.24017646850760846  0.7598234868281626  0.7598236801708403  1.0000
  Br  Br5       1.0  0.24017650020263906  0.759823425765725  0.24017652283386196  1.0000
  Br  Br6       1.0  0.7598235570839825  0.24017646365325315  0.7598236598598682  1.0000
