data_image0
_chemical_formula_structural       K2NiCl6
_chemical_formula_sum              "K2 Ni1 Cl6"
_cell_length_a       6.906518382151234
_cell_length_b       6.906518303363681
_cell_length_c       6.9065182877320845
_cell_angle_alpha    59.9999993374542
_cell_angle_beta     59.999998666521414
_cell_angle_gamma    60.00000274212915

_space_group_name_H-M_alt    "P 1"
_space_group_IT_number       1

loop_
  _space_group_symop_operation_xyz
  'x, y, z'

loop_
  _atom_site_type_symbol
  _atom_site_label
  _atom_site_symmetry_multiplicity
  _atom_site_fract_x
  _atom_site_fract_y
  _atom_site_fract_z
  _atom_site_occupancy
  K   K1        1.0  0.2499998628117834  0.24999994105624007  0.25000015499911415  1.0000
  K   K2        1.0  0.7499998972267133  0.750000025326909  0.7500001110648473  1.0000
  Ni  Ni1       1.0  0.9999998531944888  0.9999999538937436  0.9999999531130381  1.0000
  Cl  Cl1       1.0  0.23643327360377206  0.2364333793638319  0.7635666780235797  1.0000
  Cl  Cl2       1.0  0.7635670301699927  0.7635668015907365  0.23643305830464392  1.0000
  Cl  Cl3       1.0  0.7635668837553329  0.2364330902794771  0.23643326021866776  1.0000
  Cl  Cl4       1.0  0.23643329524042364  0.7635667076385417  0.7635667575270821  1.0000
  Cl  Cl5       1.0  0.23643321368462855  0.763566850353536  0.23643310790432032  1.0000
  Cl  Cl6       1.0  0.7635666942893952  0.23643324902841908  0.7635670032133963  1.0000
