data_image0
_chemical_formula_structural       K2NiF6
_chemical_formula_sum              "K2 Ni1 F6"
_cell_length_a       5.835166382021632
_cell_length_b       5.835166227006492
_cell_length_c       5.835167092316679
_cell_angle_alpha    59.99999743837844
_cell_angle_beta     59.999999741373
_cell_angle_gamma    60.0000007998924

_space_group_name_H-M_alt    "P 1"
_space_group_IT_number       1

loop_
  _space_group_symop_operation_xyz
  'x, y, z'

loop_
  _atom_site_type_symbol
  _atom_site_label
  _atom_site_symmetry_multiplicity
  _atom_site_fract_x
  _atom_site_fract_y
  _atom_site_fract_z
  _atom_site_occupancy
  K   K1        1.0  0.25000006575176614  0.2499999228090778  0.24999999221941405  1.0000
  K   K2        1.0  0.7499999836338131  0.7500000056032874  0.7499999734496907  1.0000
  Ni  Ni1       1.0  0.9999998481452241  1.1124186508497823e-07  7.000511556923952e-08  1.0000
  F   F1        1.0  0.21821715938049585  0.21821669885702694  0.7817831542549358  1.0000
  F   F2        1.0  0.7817832496406731  0.7817831183134831  0.21821695627558638  1.0000
  F   F3        1.0  0.78178300169901  0.21821694053812954  0.21821711095631321  1.0000
  F   F4        1.0  0.2182169233952646  0.7817831410941641  0.7817828128285271  1.0000
  F   F5        1.0  0.2182168365932331  0.781783087968454  0.2182170794531795  1.0000
  F   F6        1.0  0.7817828961910378  0.21821701255396125  0.7817827973693322  1.0000
