data_image0
_chemical_formula_structural       K2OsCl6
_chemical_formula_sum              "K2 Os1 Cl6"
_cell_length_a       7.036319722533728
_cell_length_b       7.036319997440212
_cell_length_c       7.036319837158234
_cell_angle_alpha    60.00000112002142
_cell_angle_beta     59.999999830063686
_cell_angle_gamma    60.00000410535862

_space_group_name_H-M_alt    "P 1"
_space_group_IT_number       1

loop_
  _space_group_symop_operation_xyz
  'x, y, z'

loop_
  _atom_site_type_symbol
  _atom_site_label
  _atom_site_symmetry_multiplicity
  _atom_site_fract_x
  _atom_site_fract_y
  _atom_site_fract_z
  _atom_site_occupancy
  K   K1        1.0  0.2500000062721346  0.250000018988682  0.24999997901265936  1.0000
  K   K2        1.0  0.7500000167459255  0.7499999647140217  0.7500000083595861  1.0000
  Os  Os1       1.0  8.238567129920772e-08  0.9999999251540213  1.8240702321048602e-07  1.0000
  Cl  Cl1       1.0  0.2368847247577314  0.2368848020322137  0.7631152440103076  1.0000
  Cl  Cl2       1.0  0.763115300148792  0.7631152547758677  0.23688468454705564  1.0000
  Cl  Cl3       1.0  0.7631152102194564  0.23688480658537636  0.23688484470035973  1.0000
  Cl  Cl4       1.0  0.23688485037798912  0.7631151283804102  0.7631151340386771  1.0000
  Cl  Cl5       1.0  0.2368847040433334  0.7631152365858271  0.23688479892777844  1.0000
  Cl  Cl6       1.0  0.7631151160125635  0.2368848341470812  0.763115135557043  1.0000
