data_image0
_chemical_formula_structural       K2OsI6
_chemical_formula_sum              "K2 Os1 I6"
_cell_length_a       8.007139354601682
_cell_length_b       8.007139184021767
_cell_length_c       8.00713901482922
_cell_angle_alpha    60.000001747907945
_cell_angle_beta     59.999997646305935
_cell_angle_gamma    59.999997199858385

_space_group_name_H-M_alt    "P 1"
_space_group_IT_number       1

loop_
  _space_group_symop_operation_xyz
  'x, y, z'

loop_
  _atom_site_type_symbol
  _atom_site_label
  _atom_site_symmetry_multiplicity
  _atom_site_fract_x
  _atom_site_fract_y
  _atom_site_fract_z
  _atom_site_occupancy
  K   K1        1.0  0.2499999407822158  0.24999997927838136  0.2500001688060386  1.0000
  K   K2        1.0  0.7500000662620677  0.7500000280795229  0.7499998585172837  1.0000
  Os  Os1       1.0  0.9999999425488619  3.823915460786512e-08  2.3343734417450528e-08  1.0000
  I   I1        1.0  0.2400712279335973  0.2400712273384947  0.7599288742509284  1.0000
  I   I2        1.0  0.759928773559737  0.7599288442611848  0.24007108501153035  1.0000
  I   I3        1.0  0.7599288172850137  0.2400712904784707  0.24007104035995724  1.0000
  I   I4        1.0  0.24007127863148586  0.7599286189871967  0.7599288328649105  1.0000
  I   I5        1.0  0.24007103440169028  0.7599286666072268  0.2400713837623031  1.0000
  I   I6        1.0  0.759928917450859  0.24007128568630073  0.7599287311600994  1.0000
