data_image0
_chemical_formula_structural       K2OsF6
_chemical_formula_sum              "K2 Os1 F6"
_cell_length_a       5.8965678645491915
_cell_length_b       5.896568106328236
_cell_length_c       5.896568013041994
_cell_angle_alpha    59.999999340676304
_cell_angle_beta     59.99999927294892
_cell_angle_gamma    59.99999941884523

_space_group_name_H-M_alt    "P 1"
_space_group_IT_number       1

loop_
  _space_group_symop_operation_xyz
  'x, y, z'

loop_
  _atom_site_type_symbol
  _atom_site_label
  _atom_site_symmetry_multiplicity
  _atom_site_fract_x
  _atom_site_fract_y
  _atom_site_fract_z
  _atom_site_occupancy
  K   K1        1.0  0.24999999446228  0.2499999889139814  0.25000001534715754  1.0000
  K   K2        1.0  0.7499999990325292  0.7500000020517419  0.750000037522746  1.0000
  Os  Os1       1.0  0.9999999728999813  5.192617374634608e-08  0.9999999960664306  1.0000
  F   F1        1.0  0.23768816817678276  0.23768811396408412  0.7623118581755314  1.0000
  F   F2        1.0  0.762311929580892  0.7623118520770756  0.23768810753997277  1.0000
  F   F3        1.0  0.7623117983812066  0.23768821247578106  0.23768815511724375  1.0000
  F   F4        1.0  0.23768817677654422  0.762311815876788  0.7623118441343204  1.0000
  F   F5        1.0  0.2376881269222254  0.7623118168893563  0.2376881156945722  1.0000
  F   F6        1.0  0.7623118352608244  0.2376881387665704  0.7623118806033172  1.0000
