data_image0
_chemical_formula_structural       K2OsBr6
_chemical_formula_sum              "K2 Os1 Br6"
_cell_length_a       7.429397443514483
_cell_length_b       7.429397110522548
_cell_length_c       7.429397505590376
_cell_angle_alpha    59.99999915423582
_cell_angle_beta     60.000000666421336
_cell_angle_gamma    59.999996976357025

_space_group_name_H-M_alt    "P 1"
_space_group_IT_number       1

loop_
  _space_group_symop_operation_xyz
  'x, y, z'

loop_
  _atom_site_type_symbol
  _atom_site_label
  _atom_site_symmetry_multiplicity
  _atom_site_fract_x
  _atom_site_fract_y
  _atom_site_fract_z
  _atom_site_occupancy
  K   K1        1.0  0.2500000282665061  0.2499999418978338  0.2499999897823975  1.0000
  K   K2        1.0  0.7499999624352975  0.7500000482426012  0.7500000121290411  1.0000
  Os  Os1       1.0  9.08968996748702e-08  1.236383843361899e-07  0.999999799858072  1.0000
  Br  Br1       1.0  0.23873130805074977  0.2387312693009856  0.7612686977684316  1.0000
  Br  Br2       1.0  0.7612685413911304  0.7612685757704121  0.23873144326947288  1.0000
  Br  Br3       1.0  0.761268751123088  0.2387312855275319  0.2387312473542384  1.0000
  Br  Br4       1.0  0.23873122197841154  0.7612687853899835  0.761268792961029  1.0000
  Br  Br5       1.0  0.23873128451168138  0.7612687274407173  0.23873126497076982  1.0000
  Br  Br6       1.0  0.7612688112502746  0.23873124126906214  0.7612687462740791  1.0000
