data_image0
_chemical_formula_structural       K2PBr6
_chemical_formula_sum              "K2 P1 Br6"
_cell_length_a       7.3682087541411185
_cell_length_b       7.36820904445648
_cell_length_c       7.368209053659264
_cell_angle_alpha    59.99999924242284
_cell_angle_beta     60.00000107340877
_cell_angle_gamma    60.000002227658406

_space_group_name_H-M_alt    "P 1"
_space_group_IT_number       1

loop_
  _space_group_symop_operation_xyz
  'x, y, z'

loop_
  _atom_site_type_symbol
  _atom_site_label
  _atom_site_symmetry_multiplicity
  _atom_site_fract_x
  _atom_site_fract_y
  _atom_site_fract_z
  _atom_site_occupancy
  K   K1        1.0  0.2499999740241607  0.25000003535969784  0.24999998402475954  1.0000
  K   K2        1.0  0.7500000175593656  0.7499999747651706  0.7499999849168016  1.0000
  P   P1        1.0  0.9999999382949026  5.8177054865197406e-08  0.9999999488339255  1.0000
  Br  Br1       1.0  0.2448310489409249  0.2448310434769458  0.755168980872643  1.0000
  Br  Br2       1.0  0.7551689642973579  0.7551689816077357  0.24483106069282115  1.0000
  Br  Br3       1.0  0.7551689335505808  0.24483105482991785  0.24483107560611525  1.0000
  Br  Br4       1.0  0.24483113894026737  0.7551688489140508  0.7551689291443294  1.0000
  Br  Br5       1.0  0.24483104646191506  0.7551689291956712  0.24483101287707565  1.0000
  Br  Br6       1.0  0.7551689430004074  0.24483108259139766  0.7551690132956271  1.0000
