data_image0
_chemical_formula_structural       K2PbF6
_chemical_formula_sum              "K2 Pb1 F6"
_cell_length_a       6.182104440259216
_cell_length_b       6.182104451980602
_cell_length_c       6.182104796660495
_cell_angle_alpha    59.999998087689775
_cell_angle_beta     59.999997983071424
_cell_angle_gamma    60.00000264426537

_space_group_name_H-M_alt    "P 1"
_space_group_IT_number       1

loop_
  _space_group_symop_operation_xyz
  'x, y, z'

loop_
  _atom_site_type_symbol
  _atom_site_label
  _atom_site_symmetry_multiplicity
  _atom_site_fract_x
  _atom_site_fract_y
  _atom_site_fract_z
  _atom_site_occupancy
  K   K1        1.0  0.24999996602798777  0.25000002044574277  0.25000001963781154  1.0000
  K   K2        1.0  0.7500000219260263  0.7500000316205356  0.7500000927293526  1.0000
  Pb  Pb1       1.0  1.647039852822556e-08  1.7830019565192605e-08  8.730943913568569e-09  1.0000
  F   F1        1.0  0.2398365312847975  0.23983646926921764  0.7601634853826982  1.0000
  F   F2        1.0  0.7601635392317008  0.7601634976091967  0.23983644712908478  1.0000
  F   F3        1.0  0.7601633618622275  0.2398365736224262  0.23983665841889718  1.0000
  F   F4        1.0  0.23983657417184664  0.760163393255982  0.7601633801558305  1.0000
  F   F5        1.0  0.23983665173917584  0.760163335988594  0.2398366631959668  1.0000
  F   F6        1.0  0.7601633215183877  0.23983667051208005  0.7601633046044419  1.0000
