data_image0
_chemical_formula_structural       K2PbBr6
_chemical_formula_sum              "K2 Pb1 Br6"
_cell_length_a       7.782477179493048
_cell_length_b       7.782477297162252
_cell_length_c       7.782477325258018
_cell_angle_alpha    59.99999789742537
_cell_angle_beta     59.999999279170645
_cell_angle_gamma    59.99999940083713

_space_group_name_H-M_alt    "P 1"
_space_group_IT_number       1

loop_
  _space_group_symop_operation_xyz
  'x, y, z'

loop_
  _atom_site_type_symbol
  _atom_site_label
  _atom_site_symmetry_multiplicity
  _atom_site_fract_x
  _atom_site_fract_y
  _atom_site_fract_z
  _atom_site_occupancy
  K   K1        1.0  0.2500000735141769  0.24999998914217966  0.24999999780417875  1.0000
  K   K2        1.0  0.7499999530823038  0.7500000398177126  0.7499999740177139  1.0000
  Pb  Pb1       1.0  9.051434085005441e-09  4.406418601605794e-08  2.2785989167284004e-07  1.0000
  Br  Br1       1.0  0.2564693183997107  0.256469339519226  0.7435307626951233  1.0000
  Br  Br2       1.0  0.7435305920193624  0.743530557248089  0.25646941811766444  1.0000
  Br  Br3       1.0  0.7435308182038901  0.25646923494571255  0.25646922603071254  1.0000
  Br  Br4       1.0  0.25646946622033956  0.743530474548795  0.7435306249873312  1.0000
  Br  Br5       1.0  0.25646923137858674  0.7435308378258514  0.2564692521940878  1.0000
  Br  Br6       1.0  0.7435305315607131  0.25646947912501067  0.7435305185750362  1.0000
