data_image0
_chemical_formula_structural       K2PbCl6
_chemical_formula_sum              "K2 Pb1 Cl6"
_cell_length_a       7.3015008451037575
_cell_length_b       7.30150111510549
_cell_length_c       7.301501213566195
_cell_angle_alpha    59.99999784397528
_cell_angle_beta     59.99999802882585
_cell_angle_gamma    59.999998295157354

_space_group_name_H-M_alt    "P 1"
_space_group_IT_number       1

loop_
  _space_group_symop_operation_xyz
  'x, y, z'

loop_
  _atom_site_type_symbol
  _atom_site_label
  _atom_site_symmetry_multiplicity
  _atom_site_fract_x
  _atom_site_fract_y
  _atom_site_fract_z
  _atom_site_occupancy
  K   K1        1.0  0.25000004310769075  0.24999997436551205  0.2500000139250098  1.0000
  K   K2        1.0  0.750000001351125  0.750000027094584  0.7499999304996551  1.0000
  Pb  Pb1       1.0  2.198144573255025e-08  0.9999999530331419  0.9999999659269403  1.0000
  Cl  Cl1       1.0  0.24903660974678063  0.24903661795060064  0.7509634544643337  1.0000
  Cl  Cl2       1.0  0.7509634252698508  0.7509634640241079  0.2490365845343458  1.0000
  Cl  Cl3       1.0  0.7509633363007111  0.2490366072873319  0.24903673230625378  1.0000
  Cl  Cl4       1.0  0.24903664531649064  0.7509633170129243  0.7509633355328124  1.0000
  Cl  Cl5       1.0  0.24903656438078334  0.7509634268132309  0.24903662920449904  1.0000
  Cl  Cl6       1.0  0.7509633539123233  0.24903661154939824  0.7509633530038469  1.0000
