data_image0
_chemical_formula_structural       K2PbI6
_chemical_formula_sum              "K2 Pb1 I6"
_cell_length_a       8.488118743897289
_cell_length_b       8.488119782228232
_cell_length_c       8.488118602428871
_cell_angle_alpha    59.9999952719725
_cell_angle_beta     60.00001006032862
_cell_angle_gamma    59.99999202174687

_space_group_name_H-M_alt    "P 1"
_space_group_IT_number       1

loop_
  _space_group_symop_operation_xyz
  'x, y, z'

loop_
  _atom_site_type_symbol
  _atom_site_label
  _atom_site_symmetry_multiplicity
  _atom_site_fract_x
  _atom_site_fract_y
  _atom_site_fract_z
  _atom_site_occupancy
  K   K1        1.0  0.24999993749861857  0.24999980814220682  0.2500000107488168  1.0000
  K   K2        1.0  0.7500000494077795  0.7500001747309568  0.7500000275569947  1.0000
  Pb  Pb1       1.0  1.211273244565386e-07  4.472971447124491e-08  0.9999996343233163  1.0000
  I   I1        1.0  0.2634498139202848  0.26344954017175387  0.7365503171417935  1.0000
  I   I2        1.0  0.736550164425425  0.736550439815633  0.2634496656251465  1.0000
  I   I3        1.0  0.7365504047434445  0.26344960885651625  0.26344970628810876  1.0000
  I   I4        1.0  0.26344937293657594  0.7365505976650882  0.7365504461527298  1.0000
  I   I5        1.0  0.2634497506242691  0.736550185640711  0.263449560978536  1.0000
  I   I6        1.0  0.7365504042022362  0.26344959955605807  0.7365506135515348  1.0000
