data_image0
_chemical_formula_structural       K2PCl6
_chemical_formula_sum              "K2 P1 Cl6"
_cell_length_a       7.013212908856717
_cell_length_b       7.013212868568008
_cell_length_c       7.013213344222095
_cell_angle_alpha    60.000004223038864
_cell_angle_beta     59.999996433145064
_cell_angle_gamma    59.99999678528738

_space_group_name_H-M_alt    "P 1"
_space_group_IT_number       1

loop_
  _space_group_symop_operation_xyz
  'x, y, z'

loop_
  _atom_site_type_symbol
  _atom_site_label
  _atom_site_symmetry_multiplicity
  _atom_site_fract_x
  _atom_site_fract_y
  _atom_site_fract_z
  _atom_site_occupancy
  K   K1        1.0  0.24999992668236742  0.24999994586895571  0.25000004996780273  1.0000
  K   K2        1.0  0.7499999791836206  0.7499999860456896  0.7500000274474196  1.0000
  P   P1        1.0  0.9999992792196778  0.9999996926443299  3.2157420178933e-07  1.0000
  Cl  Cl1       1.0  0.2357759079495143  0.23577611650894245  0.7642239204232146  1.0000
  Cl  Cl2       1.0  0.7642248492751783  0.7642245855412257  0.23577530061676452  1.0000
  Cl  Cl3       1.0  0.7642245502082924  0.23577548981328655  0.23577562750509484  1.0000
  Cl  Cl4       1.0  0.23577512423664893  0.7642245189403079  0.7642246983067715  1.0000
  Cl  Cl5       1.0  0.2357756750845273  0.764224199511491  0.23577589180509662  1.0000
  Cl  Cl6       1.0  0.764224706498572  0.23577542155476355  0.7642241716179804  1.0000
