data_image0
_chemical_formula_structural       K2PdCl6
_chemical_formula_sum              "K2 Pd1 Cl6"
_cell_length_a       6.98427444136021
_cell_length_b       6.984274439393323
_cell_length_c       6.9842744659123985
_cell_angle_alpha    59.99999998199138
_cell_angle_beta     59.999999762527395
_cell_angle_gamma    60.0000004949753

_space_group_name_H-M_alt    "P 1"
_space_group_IT_number       1

loop_
  _space_group_symop_operation_xyz
  'x, y, z'

loop_
  _atom_site_type_symbol
  _atom_site_label
  _atom_site_symmetry_multiplicity
  _atom_site_fract_x
  _atom_site_fract_y
  _atom_site_fract_z
  _atom_site_occupancy
  K   K1        1.0  0.2500000002200372  0.25000000185854626  0.24999999994355152  1.0000
  K   K2        1.0  0.7500000035827367  0.7499999968077641  0.7499999998897035  1.0000
  Pd  Pd1       1.0  0.99999998695708  1.928932439165205e-08  2.264898088829059e-08  1.0000
  Cl  Cl1       1.0  0.23783476322966615  0.23783476755875488  0.7621652380301932  1.0000
  Cl  Cl2       1.0  0.7621652417421574  0.7621652276004058  0.23783476583568772  1.0000
  Cl  Cl3       1.0  0.762165234090514  0.23783476862392422  0.23783477183596635  1.0000
  Cl  Cl4       1.0  0.2378347771105073  0.7621652177673615  0.762165211822434  1.0000
  Cl  Cl5       1.0  0.2378347747374326  0.7621652168877218  0.23783477828717692  1.0000
  Cl  Cl6       1.0  0.7621652174923371  0.23783478177858858  0.7621652101511248  1.0000
