data_image0
_chemical_formula_structural       K2PdI6
_chemical_formula_sum              "K2 Pd1 I6"
_cell_length_a       7.973503519943488
_cell_length_b       7.973502749482736
_cell_length_c       7.973503520707552
_cell_angle_alpha    60.00000056916409
_cell_angle_beta     59.99999519607841
_cell_angle_gamma    59.99999951903223

_space_group_name_H-M_alt    "P 1"
_space_group_IT_number       1

loop_
  _space_group_symop_operation_xyz
  'x, y, z'

loop_
  _atom_site_type_symbol
  _atom_site_label
  _atom_site_symmetry_multiplicity
  _atom_site_fract_x
  _atom_site_fract_y
  _atom_site_fract_z
  _atom_site_occupancy
  K   K1        1.0  0.24999975646947994  0.2500001358270938  0.25000004307844526  1.0000
  K   K2        1.0  0.7500002431601848  0.7499998452984893  0.7499999548046539  1.0000
  Pd  Pd1       1.0  6.336822030683584e-08  1.8432197582340358e-08  0.9999995163834864  1.0000
  I   I1        1.0  0.2425796506126723  0.24257978615652254  0.7574202194353246  1.0000
  I   I2        1.0  0.7574203048264292  0.7574201581046102  0.24257977507989759  1.0000
  I   I3        1.0  0.7574201956735351  0.24257978770151228  0.24257996963038572  1.0000
  I   I4        1.0  0.2425794957085917  0.7574205620685485  0.7574202651890316  1.0000
  I   I5        1.0  0.24257973780183228  0.757420245033676  0.24257981888266417  1.0000
  I   I6        1.0  0.7574205511009606  0.24257947650478348  0.7574204400712579  1.0000
