data_image0
_chemical_formula_structural       K2PdF6
_chemical_formula_sum              "K2 Pd1 F6"
_cell_length_a       5.913650456628023
_cell_length_b       5.913650532068398
_cell_length_c       5.91365049472057
_cell_angle_alpha    60.00000237531022
_cell_angle_beta     59.99999998591771
_cell_angle_gamma    60.00000067503349

_space_group_name_H-M_alt    "P 1"
_space_group_IT_number       1

loop_
  _space_group_symop_operation_xyz
  'x, y, z'

loop_
  _atom_site_type_symbol
  _atom_site_label
  _atom_site_symmetry_multiplicity
  _atom_site_fract_x
  _atom_site_fract_y
  _atom_site_fract_z
  _atom_site_occupancy
  K   K1        1.0  0.24999999827992042  0.24999997854104292  0.2500000080499912  1.0000
  K   K2        1.0  0.7499999495542585  0.7499999894703543  0.7500001179472797  1.0000
  Pd  Pd1       1.0  0.9999999814012198  0.9999999855026707  8.093040074385773e-09  1.0000
  F   F1        1.0  0.23276855851671732  0.23276865144278086  0.7672313848550539  1.0000
  F   F2        1.0  0.7672314445622211  0.7672313207107068  0.23276858462357647  1.0000
  F   F3        1.0  0.7672313931712313  0.2327686779896415  0.23276860423504325  1.0000
  F   F4        1.0  0.23276856984714114  0.767231449492376  0.7672313887777459  1.0000
  F   F5        1.0  0.23276863980114  0.7672313477134916  0.23276861849379946  1.0000
  F   F6        1.0  0.7672314608097728  0.23276859544533593  0.76723127951411  1.0000
