data_image0
_chemical_formula_structural       K2PdBr6
_chemical_formula_sum              "K2 Pd1 Br6"
_cell_length_a       7.2987423534835
_cell_length_b       7.298742402644518
_cell_length_c       7.298742544165772
_cell_angle_alpha    59.99999998969978
_cell_angle_beta     59.99999911291574
_cell_angle_gamma    60.00000314011761

_space_group_name_H-M_alt    "P 1"
_space_group_IT_number       1

loop_
  _space_group_symop_operation_xyz
  'x, y, z'

loop_
  _atom_site_type_symbol
  _atom_site_label
  _atom_site_symmetry_multiplicity
  _atom_site_fract_x
  _atom_site_fract_y
  _atom_site_fract_z
  _atom_site_occupancy
  K   K1        1.0  0.249999990998165  0.25000003531347287  0.24999999455850258  1.0000
  K   K2        1.0  0.7500000037746881  0.7499999851228529  0.7500000136231041  1.0000
  Pd  Pd1       1.0  1.852127664069198e-08  0.9999999966439561  0.9999998540373827  1.0000
  Br  Br1       1.0  0.24349701966214887  0.2434971070185384  0.7565029837915807  1.0000
  Br  Br2       1.0  0.7565029445087998  0.7565028865694385  0.24349709969851896  1.0000
  Br  Br3       1.0  0.7565028280391416  0.24349719078554355  0.24349714296499064  1.0000
  Br  Br4       1.0  0.24349714344980863  0.7565028615331949  0.7565028622874603  1.0000
  Br  Br5       1.0  0.24349722339895197  0.7565027739175312  0.24349715214427714  1.0000
  Br  Br6       1.0  0.7565028345135234  0.24349717100781815  0.7565028855146895  1.0000
