data_image0
_chemical_formula_structural       K2PF6
_chemical_formula_sum              "K2 P1 F6"
_cell_length_a       5.955260744760174
_cell_length_b       5.95526026834747
_cell_length_c       5.955259962907798
_cell_angle_alpha    60.00000612797143
_cell_angle_beta     60.00000659205082
_cell_angle_gamma    59.999996874948906

_space_group_name_H-M_alt    "P 1"
_space_group_IT_number       1

loop_
  _space_group_symop_operation_xyz
  'x, y, z'

loop_
  _atom_site_type_symbol
  _atom_site_label
  _atom_site_symmetry_multiplicity
  _atom_site_fract_x
  _atom_site_fract_y
  _atom_site_fract_z
  _atom_site_occupancy
  K   K1        1.0  0.2499999238162556  0.24999998407520746  0.24999994424719385  1.0000
  K   K2        1.0  0.7500000837958146  0.7500000447715659  0.7500001491641312  1.0000
  P   P1        1.0  0.9999999778884923  0.9999999732645011  0.999999885050913  1.0000
  F   F1        1.0  0.1980835044466129  0.19808340035134955  0.8019165487175128  1.0000
  F   F2        1.0  0.8019164431551687  0.8019166572874881  0.19808330002881186  1.0000
  F   F3        1.0  0.8019167412393269  0.19808316799987158  0.1980831998644825  1.0000
  F   F4        1.0  0.19808332006227702  0.8019165194551892  0.8019168274994439  1.0000
  F   F5        1.0  0.19808322411039417  0.8019168767767944  0.19808308041538936  1.0000
  F   F6        1.0  0.8019166993601894  0.1980832939737572  0.8019168279503258  1.0000
