data_image0
_chemical_formula_structural       K2PI6
_chemical_formula_sum              "K2 P1 I6"
_cell_length_a       8.028162530007503
_cell_length_b       8.028162133463196
_cell_length_c       8.028162471029306
_cell_angle_alpha    60.00000210642994
_cell_angle_beta     59.99999550347337
_cell_angle_gamma    59.99999628669364

_space_group_name_H-M_alt    "P 1"
_space_group_IT_number       1

loop_
  _space_group_symop_operation_xyz
  'x, y, z'

loop_
  _atom_site_type_symbol
  _atom_site_label
  _atom_site_symmetry_multiplicity
  _atom_site_fract_x
  _atom_site_fract_y
  _atom_site_fract_z
  _atom_site_occupancy
  K   K1        1.0  0.24999996312518527  0.25000003469674387  0.2500000379148546  1.0000
  K   K2        1.0  0.7500000554371468  0.7499999942498466  0.7499999286864555  1.0000
  P   P1        1.0  0.9999999460694873  6.254798586305137e-08  0.9999999184631339  1.0000
  I   I1        1.0  0.2458690240029476  0.24586871559958504  0.7541312137097828  1.0000
  I   I2        1.0  0.7541309905061933  0.7541312996169588  0.24586874932699584  1.0000
  I   I3        1.0  0.7541309635781142  0.24586874813336027  0.24586880424193164  1.0000
  I   I4        1.0  0.24586898899634027  0.7541312716598705  0.7541312323159907  1.0000
  I   I5        1.0  0.24586884657536312  0.7541311676536134  0.24586878427189984  1.0000
  I   I6        1.0  0.7541312241177768  0.24586869195574398  0.7541313380905904  1.0000
