data_image0
_chemical_formula_structural       K2PtF6
_chemical_formula_sum              "K2 Pt1 F6"
_cell_length_a       6.05643444000214
_cell_length_b       6.056434514083217
_cell_length_c       6.056434467695674
_cell_angle_alpha    59.99999948208422
_cell_angle_beta     59.99999998805676
_cell_angle_gamma    59.99999959869561

_space_group_name_H-M_alt    "P 1"
_space_group_IT_number       1

loop_
  _space_group_symop_operation_xyz
  'x, y, z'

loop_
  _atom_site_type_symbol
  _atom_site_label
  _atom_site_symmetry_multiplicity
  _atom_site_fract_x
  _atom_site_fract_y
  _atom_site_fract_z
  _atom_site_occupancy
  K   K1        1.0  0.2500000299654345  0.2500000143350323  0.2499999595090548  1.0000
  K   K2        1.0  0.7499998980069876  0.7500000409828762  0.750000006854526  1.0000
  Pt  Pt1       1.0  0.9999999732882019  3.4377756770864535e-08  0.999999948284062  1.0000
  F   F1        1.0  0.23027882269522623  0.2302787933417309  0.7697212341917197  1.0000
  F   F2        1.0  0.7697212553773506  0.7697211891762216  0.23027881735700007  1.0000
  F   F3        1.0  0.7697212491049662  0.2302787775687421  0.2302788446892691  1.0000
  F   F4        1.0  0.23027880610863485  0.769721170571454  0.7697212503380453  1.0000
  F   F5        1.0  0.23027875018492433  0.7697211816386791  0.23027883391446416  1.0000
  F   F6        1.0  0.7697211926171181  0.2302788291903685  0.7697211274650992  1.0000
