data_image0
_chemical_formula_structural       K2PtBr6
_chemical_formula_sum              "K2 Pt1 Br6"
_cell_length_a       7.309148837839322
_cell_length_b       7.309148663399816
_cell_length_c       7.309148966510703
_cell_angle_alpha    59.99999819661455
_cell_angle_beta     59.999999372768926
_cell_angle_gamma    59.999999109138344

_space_group_name_H-M_alt    "P 1"
_space_group_IT_number       1

loop_
  _space_group_symop_operation_xyz
  'x, y, z'

loop_
  _atom_site_type_symbol
  _atom_site_label
  _atom_site_symmetry_multiplicity
  _atom_site_fract_x
  _atom_site_fract_y
  _atom_site_fract_z
  _atom_site_occupancy
  K   K1        1.0  0.2500000279893826  0.24999998025155884  0.25000000137468564  1.0000
  K   K2        1.0  0.7499999883011264  0.7500000144825179  0.7499999863625316  1.0000
  Pt  Pt1       1.0  5.862788113767942e-08  1.8431960935062074e-08  0.9999999176893322  1.0000
  Br  Br1       1.0  0.24194253918849357  0.24194255359993416  0.7580574545801303  1.0000
  Br  Br2       1.0  0.7580574074784693  0.7580574746467973  0.24194254437179075  1.0000
  Br  Br3       1.0  0.7580573379243957  0.24194258293770787  0.24194270583552296  1.0000
  Br  Br4       1.0  0.2419426243818059  0.7580573983913061  0.7580573539045327  1.0000
  Br  Br5       1.0  0.24194262081839776  0.75805741926073  0.2419426159876502  1.0000
  Br  Br6       1.0  0.7580574016160978  0.24194255704138595  0.7580574162017074  1.0000
