data_image0
_chemical_formula_structural       K2PtCl6
_chemical_formula_sum              "K2 Pt1 Cl6"
_cell_length_a       7.037992167481882
_cell_length_b       7.037992277854922
_cell_length_c       7.037992165288892
_cell_angle_alpha    59.99999896524289
_cell_angle_beta     60.0000004281935
_cell_angle_gamma    60.00000337679157

_space_group_name_H-M_alt    "P 1"
_space_group_IT_number       1

loop_
  _space_group_symop_operation_xyz
  'x, y, z'

loop_
  _atom_site_type_symbol
  _atom_site_label
  _atom_site_symmetry_multiplicity
  _atom_site_fract_x
  _atom_site_fract_y
  _atom_site_fract_z
  _atom_site_occupancy
  K   K1        1.0  0.25000000745333645  0.25000000350811946  0.2499999834532479  1.0000
  K   K2        1.0  0.750000019658738  0.7500000087841672  0.7499999767350912  1.0000
  Pt  Pt1       1.0  6.137013320011258e-08  0.9999998503436027  4.2722274225537866e-08  1.0000
  Cl  Cl1       1.0  0.2356090195637812  0.23560900428591192  0.7643909639702859  1.0000
  Cl  Cl2       1.0  0.7643908942085628  0.7643910723934256  0.23560903774470915  1.0000
  Cl  Cl3       1.0  0.7643909548674416  0.23560896810423929  0.23560919604152622  1.0000
  Cl  Cl4       1.0  0.23560913992716792  0.7643909937225191  0.7643908024266832  1.0000
  Cl  Cl5       1.0  0.23560901923459138  0.7643910439561563  0.23560911232906204  1.0000
  Cl  Cl6       1.0  0.7643908855553059  0.23560904490451526  0.7643909019950871  1.0000
