data_image0
_chemical_formula_structural       K2PtI6
_chemical_formula_sum              "K2 Pt1 I6"
_cell_length_a       7.96375368436286
_cell_length_b       7.963753550505052
_cell_length_c       7.963754382734232
_cell_angle_alpha    59.999998531833526
_cell_angle_beta     59.999995416635386
_cell_angle_gamma    60.00000258552189

_space_group_name_H-M_alt    "P 1"
_space_group_IT_number       1

loop_
  _space_group_symop_operation_xyz
  'x, y, z'

loop_
  _atom_site_type_symbol
  _atom_site_label
  _atom_site_symmetry_multiplicity
  _atom_site_fract_x
  _atom_site_fract_y
  _atom_site_fract_z
  _atom_site_occupancy
  K   K1        1.0  0.25000002390298054  0.24999998343713223  0.24999993897521108  1.0000
  K   K2        1.0  0.7500000419184507  0.7499999918346745  0.7500000207593295  1.0000
  Pt  Pt1       1.0  0.9999999281761917  1.537899079330829e-08  1.7639373004055664e-07  1.0000
  I   I1        1.0  0.24146086538031225  0.2414608501438242  0.7585392680223847  1.0000
  I   I2        1.0  0.7585390966883394  0.7585391927955386  0.24146088178418382  1.0000
  I   I3        1.0  0.7585390759067726  0.24146088515425235  0.2414608993896893  1.0000
  I   I4        1.0  0.2414610804872912  0.7585389532445431  0.7585389403464735  1.0000
  I   I5        1.0  0.24146100200666543  0.7585391366886836  0.24146086510101578  1.0000
  I   I6        1.0  0.758538893319251  0.24146098468351743  0.7585390063759568  1.0000
