data_image0
_chemical_formula_structural       K2ReBr6
_chemical_formula_sum              "K2 Re1 Br6"
_cell_length_a       7.457425095826204
_cell_length_b       7.457424913364394
_cell_length_c       7.457425540409375
_cell_angle_alpha    59.99999699347515
_cell_angle_beta     59.99999655773874
_cell_angle_gamma    60.00000206012932

_space_group_name_H-M_alt    "P 1"
_space_group_IT_number       1

loop_
  _space_group_symop_operation_xyz
  'x, y, z'

loop_
  _atom_site_type_symbol
  _atom_site_label
  _atom_site_symmetry_multiplicity
  _atom_site_fract_x
  _atom_site_fract_y
  _atom_site_fract_z
  _atom_site_occupancy
  K   K1        1.0  0.250000006872553  0.25000001071798866  0.2499999437231307  1.0000
  K   K2        1.0  0.7500000015217599  0.7499999779575349  0.7500000649345219  1.0000
  Re  Re1       1.0  4.89259972484001e-08  0.9999998160606015  3.1021780630251757e-07  1.0000
  Br  Br1       1.0  0.23942247198965735  0.23942244334815338  0.7605775633457784  1.0000
  Br  Br2       1.0  0.7605776265225463  0.7605776372970755  0.23942234354051237  1.0000
  Br  Br3       1.0  0.7605774447644692  0.23942253016368273  0.2394225711740532  1.0000
  Br  Br4       1.0  0.23942252316772944  0.7605774962851084  0.760577346302795  1.0000
  Br  Br5       1.0  0.23942246143473545  0.760577537419792  0.23942250779515298  1.0000
  Br  Br6       1.0  0.76057741256086  0.2394225432254248  0.7605773370265568  1.0000
