data_image0
_chemical_formula_structural       K2ReF6
_chemical_formula_sum              "K2 Re1 F6"
_cell_length_a       5.964443242129908
_cell_length_b       5.964443166681773
_cell_length_c       5.964443273439175
_cell_angle_alpha    59.999999466871465
_cell_angle_beta     59.999999185837105
_cell_angle_gamma    59.99999958576375

_space_group_name_H-M_alt    "P 1"
_space_group_IT_number       1

loop_
  _space_group_symop_operation_xyz
  'x, y, z'

loop_
  _atom_site_type_symbol
  _atom_site_label
  _atom_site_symmetry_multiplicity
  _atom_site_fract_x
  _atom_site_fract_y
  _atom_site_fract_z
  _atom_site_occupancy
  K   K1        1.0  0.25000003735298165  0.249999965951858  0.2500000112116242  1.0000
  K   K2        1.0  0.749999957217887  0.7500000313272404  0.7499999990513038  1.0000
  Re  Re1       1.0  0.9999999630990628  6.160230558799509e-09  0.9999999717786907  1.0000
  F   F1        1.0  0.23490539517407846  0.23490539587958614  0.7650946045407294  1.0000
  F   F2        1.0  0.7650946112878034  0.7650945192631019  0.23490544252149942  1.0000
  F   F3        1.0  0.7650945969939748  0.23490543731448874  0.23490541116196367  1.0000
  F   F4        1.0  0.23490535733074436  0.7650946400476097  0.7650946026549731  1.0000
  F   F5        1.0  0.23490538431557317  0.7650946158224514  0.23490539751788786  1.0000
  F   F6        1.0  0.7650946443009163  0.23490538967028807  0.7650945681429752  1.0000
