data_image0
_chemical_formula_structural       K2ReI6
_chemical_formula_sum              "K2 Re1 I6"
_cell_length_a       8.087994472950776
_cell_length_b       8.08799447451838
_cell_length_c       8.087994484305936
_cell_angle_alpha    60.000000064870484
_cell_angle_beta     59.999999940726475
_cell_angle_gamma    59.9999999091636

_space_group_name_H-M_alt    "P 1"
_space_group_IT_number       1

loop_
  _space_group_symop_operation_xyz
  'x, y, z'

loop_
  _atom_site_type_symbol
  _atom_site_label
  _atom_site_symmetry_multiplicity
  _atom_site_fract_x
  _atom_site_fract_y
  _atom_site_fract_z
  _atom_site_occupancy
  K   K1        1.0  0.24999998767990658  0.250000009464655  0.24999999268067813  1.0000
  K   K2        1.0  0.7500000113504854  0.7499999905370872  0.750000007434303  1.0000
  Re  Re1       1.0  9.820500171116789e-09  9.085650621712034e-09  0.9999999781829201  1.0000
  I   I1        1.0  0.24010837896249565  0.24010838197733558  0.7598916204011711  1.0000
  I   I2        1.0  0.7598916115884657  0.7598916134815813  0.24010838746133853  1.0000
  I   I3        1.0  0.7598916105708954  0.2401084006542074  0.24010838374885574  1.0000
  I   I4        1.0  0.2401083879547385  0.7598916008618098  0.7598916220433692  1.0000
  I   I5        1.0  0.24010839302415937  0.759891598704213  0.24010839272330475  1.0000
  I   I6        1.0  0.7598916103758524  0.24010839675470386  0.7598916161330823  1.0000
