data_image0
_chemical_formula_structural       K2ReCl6
_chemical_formula_sum              "K2 Re1 Cl6"
_cell_length_a       7.1007076079672435
_cell_length_b       7.100707376443715
_cell_length_c       7.100706956202624
_cell_angle_alpha    60.00000235404988
_cell_angle_beta     60.000002206502934
_cell_angle_gamma    59.99999592021881

_space_group_name_H-M_alt    "P 1"
_space_group_IT_number       1

loop_
  _space_group_symop_operation_xyz
  'x, y, z'

loop_
  _atom_site_type_symbol
  _atom_site_label
  _atom_site_symmetry_multiplicity
  _atom_site_fract_x
  _atom_site_fract_y
  _atom_site_fract_z
  _atom_site_occupancy
  K   K1        1.0  0.2500000256353962  0.24999999894900496  0.2500000125056416  1.0000
  K   K2        1.0  0.7499999545483584  0.7500000175448723  0.7499999897651786  1.0000
  Re  Re1       1.0  1.9691389268423606e-07  7.761692940637813e-08  0.9999997148619879  1.0000
  Cl  Cl1       1.0  0.23658964147785902  0.2365896346374073  0.7634103504354709  1.0000
  Cl  Cl2       1.0  0.7634102283739486  0.7634102835416829  0.2365897167260234  1.0000
  Cl  Cl3       1.0  0.7634103906598708  0.23658956776158171  0.23658955522516187  1.0000
  Cl  Cl4       1.0  0.23658947749805204  0.7634104677053329  0.763410583703927  1.0000
  Cl  Cl5       1.0  0.23658955632222728  0.7634104688610756  0.23658948306840352  1.0000
  Cl  Cl6       1.0  0.7634105366765132  0.23658948726406337  0.7634105887444047  1.0000
