data_image0
_chemical_formula_structural       K2RhCl6
_chemical_formula_sum              "K2 Rh1 Cl6"
_cell_length_a       7.070592046367104
_cell_length_b       7.070591444474272
_cell_length_c       7.070591477228676
_cell_angle_alpha    60.00000028225434
_cell_angle_beta     59.99999959154482
_cell_angle_gamma    59.999997970068016

_space_group_name_H-M_alt    "P 1"
_space_group_IT_number       1

loop_
  _space_group_symop_operation_xyz
  'x, y, z'

loop_
  _atom_site_type_symbol
  _atom_site_label
  _atom_site_symmetry_multiplicity
  _atom_site_fract_x
  _atom_site_fract_y
  _atom_site_fract_z
  _atom_site_occupancy
  K   K1        1.0  0.25000000651801807  0.24999997666392842  0.2499999979680007  1.0000
  K   K2        1.0  0.7499999937526721  0.7500000269931663  0.7499999540610771  1.0000
  Rh  Rh1       1.0  9.582668765337394e-08  0.999999913391622  0.9999999091180037  1.0000
  Cl  Cl1       1.0  0.23439851984352603  0.23439844576316304  0.7656014846334305  1.0000
  Cl  Cl2       1.0  0.7656013885771362  0.7656015786799419  0.23439847322717286  1.0000
  Cl  Cl3       1.0  0.765601592601081  0.2343983661654754  0.23439846755493074  1.0000
  Cl  Cl4       1.0  0.23439837152621082  0.7656016773314744  0.7656016042564796  1.0000
  Cl  Cl5       1.0  0.23439845163348616  0.7656016235079303  0.23439845880295188  1.0000
  Cl  Cl6       1.0  0.7656015938857591  0.23439837668483166  0.7656016307366036  1.0000
