data_image0
_chemical_formula_structural       K2RhI6
_chemical_formula_sum              "K2 Rh1 I6"
_cell_length_a       7.98416600434888
_cell_length_b       7.984166339713603
_cell_length_c       7.984166300611332
_cell_angle_alpha    59.99999718785994
_cell_angle_beta     60.00000299522935
_cell_angle_gamma    59.999997050302596

_space_group_name_H-M_alt    "P 1"
_space_group_IT_number       1

loop_
  _space_group_symop_operation_xyz
  'x, y, z'

loop_
  _atom_site_type_symbol
  _atom_site_label
  _atom_site_symmetry_multiplicity
  _atom_site_fract_x
  _atom_site_fract_y
  _atom_site_fract_z
  _atom_site_occupancy
  K   K1        1.0  0.24999999776924764  0.25000003442797275  0.24999991984069608  1.0000
  K   K2        1.0  0.7499999854801053  0.7499999575570216  0.7500001118447213  1.0000
  Rh  Rh1       1.0  6.438145904206846e-08  0.9999998849524673  0.9999998512384713  1.0000
  I   I1        1.0  0.23889845655276024  0.23889835957187341  0.7611016855463003  1.0000
  I   I2        1.0  0.7611015472647349  0.7611016661604005  0.2388982789020804  1.0000
  I   I3        1.0  0.7611012851317537  0.23889872448756996  0.23889867526954797  1.0000
  I   I4        1.0  0.23889858010749102  0.7611014393017482  0.7611014347269832  1.0000
  I   I5        1.0  0.2388987548124645  0.7611014038820109  0.23889847839340084  1.0000
  I   I6        1.0  0.7611013211139644  0.23889853134619285  0.7611015691488089  1.0000
