data_image0
_chemical_formula_structural       K2RhF6
_chemical_formula_sum              "K2 Rh1 F6"
_cell_length_a       5.993323417239233
_cell_length_b       5.993323086802604
_cell_length_c       5.993323220418959
_cell_angle_alpha    60.00000204785043
_cell_angle_beta     60.00000187474819
_cell_angle_gamma    60.00000362265778

_space_group_name_H-M_alt    "P 1"
_space_group_IT_number       1

loop_
  _space_group_symop_operation_xyz
  'x, y, z'

loop_
  _atom_site_type_symbol
  _atom_site_label
  _atom_site_symmetry_multiplicity
  _atom_site_fract_x
  _atom_site_fract_y
  _atom_site_fract_z
  _atom_site_occupancy
  K   K1        1.0  0.2499999829248649  0.25000000822806645  0.2499999844443593  1.0000
  K   K2        1.0  0.7500000027005961  0.7500000594239687  0.7500000725154863  1.0000
  Rh  Rh1       1.0  0.999999998287045  2.2478669444153703e-08  0.9999999695948625  1.0000
  F   F1        1.0  0.22984048059766543  0.22984049450005192  0.7701594902240106  1.0000
  F   F2        1.0  0.7701595182238512  0.7701594873243298  0.22984044787895644  1.0000
  F   F3        1.0  0.7701594767503093  0.22984051658162394  0.22984049509947158  1.0000
  F   F4        1.0  0.22984054135770599  0.770159430502997  0.7701594957802577  1.0000
  F   F5        1.0  0.2298405789185046  0.7701594436612299  0.22984049530402412  1.0000
  F   F6        1.0  0.7701594329420942  0.22984052794557722  0.7701595181402651  1.0000
