data_image0
_chemical_formula_structural       K2RhBr6
_chemical_formula_sum              "K2 Rh1 Br6"
_cell_length_a       7.376561212954653
_cell_length_b       7.376561221288227
_cell_length_c       7.376561906859023
_cell_angle_alpha    59.99999797367522
_cell_angle_beta     59.99999545859516
_cell_angle_gamma    60.00000205317287

_space_group_name_H-M_alt    "P 1"
_space_group_IT_number       1

loop_
  _space_group_symop_operation_xyz
  'x, y, z'

loop_
  _atom_site_type_symbol
  _atom_site_label
  _atom_site_symmetry_multiplicity
  _atom_site_fract_x
  _atom_site_fract_y
  _atom_site_fract_z
  _atom_site_occupancy
  K   K1        1.0  0.2499999433267184  0.25000001113386244  0.2500000636088816  1.0000
  K   K2        1.0  0.7499999990557938  0.750000005176161  0.7500000390628306  1.0000
  Rh  Rh1       1.0  0.9999999419376888  8.965725748884115e-08  2.580428382947202e-07  1.0000
  Br  Br1       1.0  0.2400141013127769  0.2400141719082273  0.7599858549893218  1.0000
  Br  Br2       1.0  0.7599859111178078  0.75998572817943  0.24001419078647473  1.0000
  Br  Br3       1.0  0.7599858002235402  0.24001424795198392  0.24001422406451517  1.0000
  Br  Br4       1.0  0.2400142943004723  0.7599857251897332  0.7599855407907724  1.0000
  Br  Br5       1.0  0.24001426971665518  0.7599856946186768  0.24001435434863913  1.0000
  Br  Br6       1.0  0.7599857416368473  0.2400143167103867  0.7599854655337137  1.0000
