data_image0
_chemical_formula_structural       K2RuF6
_chemical_formula_sum              "K2 Ru1 F6"
_cell_length_a       5.970460340438469
_cell_length_b       5.970460246943479
_cell_length_c       5.97046045970302
_cell_angle_alpha    59.99999909263861
_cell_angle_beta     59.99999892677264
_cell_angle_gamma    60.000000781260404

_space_group_name_H-M_alt    "P 1"
_space_group_IT_number       1

loop_
  _space_group_symop_operation_xyz
  'x, y, z'

loop_
  _atom_site_type_symbol
  _atom_site_label
  _atom_site_symmetry_multiplicity
  _atom_site_fract_x
  _atom_site_fract_y
  _atom_site_fract_z
  _atom_site_occupancy
  K   K1        1.0  0.2499999988545468  0.2500000482950966  0.2500000046571877  1.0000
  K   K2        1.0  0.7500000604669003  0.7500000053941154  0.7499999445711076  1.0000
  Ru  Ru1       1.0  0.9999999903500151  0.9999999651272059  3.8373498498204015e-09  1.0000
  F   F1        1.0  0.23121912868964917  0.23121921074228538  0.7687808468365352  1.0000
  F   F2        1.0  0.7687807162301777  0.7687807608932904  0.2312193176158963  1.0000
  F   F3        1.0  0.7687807367238676  0.23121933046275703  0.23121929496453192  1.0000
  F   F4        1.0  0.23121930700808083  0.7687807293804769  0.7687806120839464  1.0000
  F   F5        1.0  0.2312193246668383  0.7687806715023158  0.2312193550254806  1.0000
  F   F6        1.0  0.7687807372154781  0.23121928167119643  0.7687806230812775  1.0000
