data_image0
_chemical_formula_structural       K2RuCl6
_chemical_formula_sum              "K2 Ru1 Cl6"
_cell_length_a       7.05313167006867
_cell_length_b       7.053131252225168
_cell_length_c       7.053131393417914
_cell_angle_alpha    59.99999881643461
_cell_angle_beta     59.999996410723796
_cell_angle_gamma    59.99999812192491

_space_group_name_H-M_alt    "P 1"
_space_group_IT_number       1

loop_
  _space_group_symop_operation_xyz
  'x, y, z'

loop_
  _atom_site_type_symbol
  _atom_site_label
  _atom_site_symmetry_multiplicity
  _atom_site_fract_x
  _atom_site_fract_y
  _atom_site_fract_z
  _atom_site_occupancy
  K   K1        1.0  0.24999999288487826  0.2500000181856102  0.2500000556038423  1.0000
  K   K2        1.0  0.7499999852543473  0.749999965997595  0.7499999908663634  1.0000
  Ru  Ru1       1.0  2.139923979094036e-08  0.9999999652708905  1.1867192172727093e-07  1.0000
  Cl  Cl1       1.0  0.2358058248888055  0.2358058148010744  0.7641941983887908  1.0000
  Cl  Cl2       1.0  0.7641942068137639  0.7641941363894758  0.23580587749474763  1.0000
  Cl  Cl3       1.0  0.7641941886847436  0.23580582017750007  0.2358058844579497  1.0000
  Cl  Cl4       1.0  0.23580585358406464  0.7641941778973491  0.7641940889742008  1.0000
  Cl  Cl5       1.0  0.23580589841882205  0.7641941018048523  0.23580590195624204  1.0000
  Cl  Cl6       1.0  0.7641940644384377  0.23580599698441598  0.7641938580776503  1.0000
