data_image0
_chemical_formula_structural       K2RuBr6
_chemical_formula_sum              "K2 Ru1 Br6"
_cell_length_a       7.3812856425384075
_cell_length_b       7.381285593113724
_cell_length_c       7.3812854930527
_cell_angle_alpha    59.999999003840166
_cell_angle_beta     60.00000043273398
_cell_angle_gamma    60.00000112502589

_space_group_name_H-M_alt    "P 1"
_space_group_IT_number       1

loop_
  _space_group_symop_operation_xyz
  'x, y, z'

loop_
  _atom_site_type_symbol
  _atom_site_label
  _atom_site_symmetry_multiplicity
  _atom_site_fract_x
  _atom_site_fract_y
  _atom_site_fract_z
  _atom_site_occupancy
  K   K1        1.0  0.2500000210017006  0.2500000512651872  0.24999998148129757  1.0000
  K   K2        1.0  0.7499999878398877  0.7499999662995349  0.7500000473241862  1.0000
  Ru  Ru1       1.0  0.9999999491217089  0.9999998241187718  9.17033206442211e-08  1.0000
  Br  Br1       1.0  0.23996092591801677  0.23996095192646835  0.760039064388146  1.0000
  Br  Br2       1.0  0.7600391924912676  0.7600391170752194  0.23996083514301408  1.0000
  Br  Br3       1.0  0.7600390077138682  0.239961028800752  0.23996091615537438  1.0000
  Br  Br4       1.0  0.23996097489685703  0.7600389970602544  0.7600391026505129  1.0000
  Br  Br5       1.0  0.2399609089053368  0.7600390814368401  0.2399608261137425  1.0000
  Br  Br6       1.0  0.760039032731003  0.23996098756484516  0.760039115741454  1.0000
