data_image0
_chemical_formula_structural       K2RuI6
_chemical_formula_sum              "K2 Ru1 I6"
_cell_length_a       7.93306824317955
_cell_length_b       7.933068379546737
_cell_length_c       7.933068247981855
_cell_angle_alpha    59.999997272678044
_cell_angle_beta     60.00000101708831
_cell_angle_gamma    59.99999624499769

_space_group_name_H-M_alt    "P 1"
_space_group_IT_number       1

loop_
  _space_group_symop_operation_xyz
  'x, y, z'

loop_
  _atom_site_type_symbol
  _atom_site_label
  _atom_site_symmetry_multiplicity
  _atom_site_fract_x
  _atom_site_fract_y
  _atom_site_fract_z
  _atom_site_occupancy
  K   K1        1.0  0.25000005834628525  0.24999997357462922  0.2499999956936101  1.0000
  K   K2        1.0  0.7500000023702971  0.7500000195301457  0.7499999988010502  1.0000
  Ru  Ru1       1.0  0.9999999811660996  0.999999995368456  5.207020453093728e-08  1.0000
  I   I1        1.0  0.24255259463520926  0.24255268681316916  0.757447335257512  1.0000
  I   I2        1.0  0.7574474097259551  0.7574473356247176  0.24255257820732604  1.0000
  I   I3        1.0  0.7574472772423653  0.2425526375479282  0.24255265848047866  1.0000
  I   I4        1.0  0.24255266451485014  0.7574474111353674  0.7574473614018711  1.0000
  I   I5        1.0  0.24255265857312885  0.757447321117713  0.2425526294155453  1.0000
  I   I6        1.0  0.7574473653585929  0.2425526164085481  0.7574473772260526  1.0000
