data_image0
_chemical_formula_structural       K2SBr6
_chemical_formula_sum              "K2 S1 Br6"
_cell_length_a       7.3271458804850855
_cell_length_b       7.327145923198538
_cell_length_c       7.327145800961174
_cell_angle_alpha    59.99999927294673
_cell_angle_beta     59.99999982867003
_cell_angle_gamma    59.99999839460666

_space_group_name_H-M_alt    "P 1"
_space_group_IT_number       1

loop_
  _space_group_symop_operation_xyz
  'x, y, z'

loop_
  _atom_site_type_symbol
  _atom_site_label
  _atom_site_symmetry_multiplicity
  _atom_site_fract_x
  _atom_site_fract_y
  _atom_site_fract_z
  _atom_site_occupancy
  K   K1        1.0  0.2500000503872516  0.24999993985454638  0.24999998501766493  1.0000
  K   K2        1.0  0.7499999787307452  0.749999991729891  0.7499999879402824  1.0000
  S   S1        1.0  5.174860408951437e-08  1.2369225530337477e-07  0.9999999791541765  1.0000
  Br  Br1       1.0  0.24585703864487524  0.24585709553631688  0.7541429376052085  1.0000
  Br  Br2       1.0  0.7541429771009853  0.7541428761645278  0.24585704245242168  1.0000
  Br  Br3       1.0  0.7541429356014164  0.2458570794642393  0.24585705043967734  1.0000
  Br  Br4       1.0  0.24585704682610054  0.754142959097285  0.754142949696058  1.0000
  Br  Br5       1.0  0.2458569641422084  0.7541428701713542  0.24585714749374007  1.0000
  Br  Br6       1.0  0.7541429401912163  0.24585707645673707  0.7541429308318194  1.0000
