data_image0
_chemical_formula_structural       K2SCl6
_chemical_formula_sum              "K2 S1 Cl6"
_cell_length_a       7.057376433300794
_cell_length_b       7.057376846658191
_cell_length_c       7.057376932830985
_cell_angle_alpha    59.99999911346134
_cell_angle_beta     59.999998260002855
_cell_angle_gamma    59.999999097187846

_space_group_name_H-M_alt    "P 1"
_space_group_IT_number       1

loop_
  _space_group_symop_operation_xyz
  'x, y, z'

loop_
  _atom_site_type_symbol
  _atom_site_label
  _atom_site_symmetry_multiplicity
  _atom_site_fract_x
  _atom_site_fract_y
  _atom_site_fract_z
  _atom_site_occupancy
  K   K1        1.0  0.2499999761867737  0.25000000514824555  0.25000000723094673  1.0000
  K   K2        1.0  0.7500000333909174  0.7499999807365169  0.750000000801223  1.0000
  S   S1        1.0  2.4939417561223348e-08  0.9999999791750686  2.4864941083121983e-08  1.0000
  Cl  Cl1       1.0  0.2373735647835596  0.23737357336555415  0.7626264123169877  1.0000
  Cl  Cl2       1.0  0.7626263586560569  0.7626264107837988  0.2373736056449545  1.0000
  Cl  Cl3       1.0  0.7626263999146499  0.23737361374207253  0.2373735723189255  1.0000
  Cl  Cl4       1.0  0.23737366220167186  0.762626391232209  0.7626264324891817  1.0000
  Cl  Cl5       1.0  0.23737361226412604  0.7626263449727367  0.23737359905950825  1.0000
  Cl  Cl6       1.0  0.7626263505085528  0.23737369297435404  0.7626263369131077  1.0000
