data_image0
_chemical_formula_structural       K2SeCl6
_chemical_formula_sum              "K2 Se1 Cl6"
_cell_length_a       7.1932182547694445
_cell_length_b       7.193218407317584
_cell_length_c       7.193218473176349
_cell_angle_alpha    59.99999880849752
_cell_angle_beta     59.999998189326675
_cell_angle_gamma    59.99999988785202

_space_group_name_H-M_alt    "P 1"
_space_group_IT_number       1

loop_
  _space_group_symop_operation_xyz
  'x, y, z'

loop_
  _atom_site_type_symbol
  _atom_site_label
  _atom_site_symmetry_multiplicity
  _atom_site_fract_x
  _atom_site_fract_y
  _atom_site_fract_z
  _atom_site_occupancy
  K   K1        1.0  0.2499999635076261  0.25000005242735035  0.25000000598687705  1.0000
  K   K2        1.0  0.7499999844572435  0.7500000295841831  0.7499999834050465  1.0000
  Se  Se1       1.0  0.9999999530106213  0.9999999387050224  1.1948149837719011e-07  1.0000
  Cl  Cl1       1.0  0.23859465321159815  0.2385945775010872  0.7614053741948601  1.0000
  Cl  Cl2       1.0  0.7614054408183424  0.7614053648941107  0.2385945980707127  1.0000
  Cl  Cl3       1.0  0.7614053681522862  0.23859461596661924  0.23859461964490716  1.0000
  Cl  Cl4       1.0  0.23859466644951796  0.7614053843182789  0.7614053422682975  1.0000
  Cl  Cl5       1.0  0.23859465645237782  0.7614053692630844  0.23859460825260834  1.0000
  Cl  Cl6       1.0  0.7614053067388606  0.2385946718851314  0.7614053508616426  1.0000
