data_image0
_chemical_formula_structural       K2SeF6
_chemical_formula_sum              "K2 Se1 F6"
_cell_length_a       5.986397634501658
_cell_length_b       5.986397403287745
_cell_length_c       5.986397687787226
_cell_angle_alpha    60.000001331313776
_cell_angle_beta     59.99999963004314
_cell_angle_gamma    59.999998919090075

_space_group_name_H-M_alt    "P 1"
_space_group_IT_number       1

loop_
  _space_group_symop_operation_xyz
  'x, y, z'

loop_
  _atom_site_type_symbol
  _atom_site_label
  _atom_site_symmetry_multiplicity
  _atom_site_fract_x
  _atom_site_fract_y
  _atom_site_fract_z
  _atom_site_occupancy
  K   K1        1.0  0.24999997142932223  0.25000000928809996  0.2499999324815997  1.0000
  K   K2        1.0  0.7500000481792194  0.7500000196807918  0.7500001004202808  1.0000
  Se  Se1       1.0  0.9999999804973267  0.9999999774953219  0.9999999541855283  1.0000
  F   F1        1.0  0.2310236802888903  0.23102366376725572  0.7689762447449083  1.0000
  F   F2        1.0  0.7689762989503864  0.7689763242840351  0.23102358157326064  1.0000
  F   F3        1.0  0.7689764328386394  0.23102354411822779  0.23102363807534504  1.0000
  F   F4        1.0  0.2310235429908344  0.7689764541624711  0.7689764754919605  1.0000
  F   F5        1.0  0.23102363219797553  0.7689764076606271  0.23102365047411205  1.0000
  F   F6        1.0  0.7689764261251233  0.23102358039067186  0.7689764085860903  1.0000
