data_image0
_chemical_formula_structural       K2SeI6
_chemical_formula_sum              "K2 Se1 I6"
_cell_length_a       8.117774614033394
_cell_length_b       8.11777461839891
_cell_length_c       8.117774669793475
_cell_angle_alpha    59.99999993050966
_cell_angle_beta     59.99999988323878
_cell_angle_gamma    60.000000473279876

_space_group_name_H-M_alt    "P 1"
_space_group_IT_number       1

loop_
  _space_group_symop_operation_xyz
  'x, y, z'

loop_
  _atom_site_type_symbol
  _atom_site_label
  _atom_site_symmetry_multiplicity
  _atom_site_fract_x
  _atom_site_fract_y
  _atom_site_fract_z
  _atom_site_occupancy
  K   K1        1.0  0.24999999434158288  0.250000006963136  0.25000000044939463  1.0000
  K   K2        1.0  0.7500000068043234  0.7499999922237288  0.7500000050231008  1.0000
  Se  Se1       1.0  2.84486967335648e-09  2.968516367726421e-17  9.664347386248359e-09  1.0000
  I   I1        1.0  0.25100494387834915  0.25100495234857906  0.7489950499232505  1.0000
  I   I2        1.0  0.7489950514915326  0.7489950513644457  0.25100495001485373  1.0000
  I   I3        1.0  0.7489950482208165  0.2510049564938411  0.25100495592464384  1.0000
  I   I4        1.0  0.2510049558562445  0.748995038166864  0.7489950355629781  1.0000
  I   I5        1.0  0.25100495306775217  0.7489950406021493  0.25100496155797736  1.0000
  I   I6        1.0  0.748995041799223  0.25100496461959554  0.7489950329497617  1.0000
