data_image0
_chemical_formula_structural       K2SeBr6
_chemical_formula_sum              "K2 Se1 Br6"
_cell_length_a       7.6088318361236125
_cell_length_b       7.608832195350695
_cell_length_c       7.608831616713084
_cell_angle_alpha    59.99999605971797
_cell_angle_beta     59.999999925149524
_cell_angle_gamma    59.99999579893088

_space_group_name_H-M_alt    "P 1"
_space_group_IT_number       1

loop_
  _space_group_symop_operation_xyz
  'x, y, z'

loop_
  _atom_site_type_symbol
  _atom_site_label
  _atom_site_symmetry_multiplicity
  _atom_site_fract_x
  _atom_site_fract_y
  _atom_site_fract_z
  _atom_site_occupancy
  K   K1        1.0  0.24999997908356147  0.2500000050714221  0.2500000242251665  1.0000
  K   K2        1.0  0.7500000245812127  0.7499999717541016  0.7499999495421277  1.0000
  Se  Se1       1.0  3.6091584543000326e-07  0.9999995364248364  2.984109779248402e-07  1.0000
  Br  Br1       1.0  0.24294990169996708  0.24294999084500693  0.7570499957320065  1.0000
  Br  Br2       1.0  0.7570500082246092  0.75705015338265  0.24294996617529505  1.0000
  Br  Br3       1.0  0.7570500994347451  0.24294991713498568  0.242949847854092  1.0000
  Br  Br4       1.0  0.24294987093262757  0.757050214215581  0.7570501060415031  1.0000
  Br  Br5       1.0  0.2429497718299317  0.7570502224782549  0.24294975904281474  1.0000
  Br  Br6       1.0  0.7570499804951818  0.24294998935412712  0.7570500612366169  1.0000
