data_image0
_chemical_formula_structural       K2SF6
_chemical_formula_sum              "K2 S1 F6"
_cell_length_a       5.859667717486929
_cell_length_b       5.859668026180511
_cell_length_c       5.859667882317369
_cell_angle_alpha    60.000001293594714
_cell_angle_beta     60.000000582275455
_cell_angle_gamma    60.00000006434273

_space_group_name_H-M_alt    "P 1"
_space_group_IT_number       1

loop_
  _space_group_symop_operation_xyz
  'x, y, z'

loop_
  _atom_site_type_symbol
  _atom_site_label
  _atom_site_symmetry_multiplicity
  _atom_site_fract_x
  _atom_site_fract_y
  _atom_site_fract_z
  _atom_site_occupancy
  K   K1        1.0  0.24999998469480678  0.2500000174809298  0.2499999461650698  1.0000
  K   K2        1.0  0.7500000118292292  0.7500000210908881  0.7500000522740773  1.0000
  S   S1        1.0  0.9999999755366688  8.360507193377188e-09  0.9999999909855981  1.0000
  F   F1        1.0  0.22988659693491154  0.2298865885314977  0.770113384737321  1.0000
  F   F2        1.0  0.7701134844645586  0.7701134082377852  0.22988650512972794  1.0000
  F   F3        1.0  0.7701133882785356  0.22988662299649143  0.22988655489607063  1.0000
  F   F4        1.0  0.22988655969795693  0.770113377953047  0.770113513933289  1.0000
  F   F5        1.0  0.22988659337574482  0.7701133822730868  0.22988657532471074  1.0000
  F   F6        1.0  0.7701134134008707  0.2298865664232834  0.7701134782851022  1.0000
