data_image0
_chemical_formula_structural       K2SiF6
_chemical_formula_sum              "K2 Si1 F6"
_cell_length_a       5.814393860350333
_cell_length_b       5.814393932691578
_cell_length_c       5.814394218915699
_cell_angle_alpha    60.000000055807774
_cell_angle_beta     59.99999785624348
_cell_angle_gamma    60.00000036639385

_space_group_name_H-M_alt    "P 1"
_space_group_IT_number       1

loop_
  _space_group_symop_operation_xyz
  'x, y, z'

loop_
  _atom_site_type_symbol
  _atom_site_label
  _atom_site_symmetry_multiplicity
  _atom_site_fract_x
  _atom_site_fract_y
  _atom_site_fract_z
  _atom_site_occupancy
  K   K1        1.0  0.2500000414180596  0.24999996488475862  0.2500000601233162  1.0000
  K   K2        1.0  0.7499999495504042  0.7499999957615439  0.7499998301975379  1.0000
  Si  Si1       1.0  4.433068741934418e-09  1.0532008416003383e-08  1.4875766665680361e-08  1.0000
  F   F1        1.0  0.20888276798804073  0.20888283629547955  0.791117240096662  1.0000
  F   F2        1.0  0.7911171925683994  0.7911171917556792  0.20888291894600403  1.0000
  F   F3        1.0  0.7911171923577142  0.20888288230450086  0.20888277086281168  1.0000
  F   F4        1.0  0.20888280906008358  0.7911171899810879  0.7911171564463023  1.0000
  F   F5        1.0  0.20888285204721518  0.7911170985930797  0.2088828579400625  1.0000
  F   F6        1.0  0.7911172164140319  0.20888279043557006  0.7911170758797053  1.0000
