data_image0
_chemical_formula_structural       K2SiI6
_chemical_formula_sum              "K2 Si1 I6"
_cell_length_a       8.01338421502949
_cell_length_b       8.013384212478412
_cell_length_c       8.013384126228047
_cell_angle_alpha    60.00000028651295
_cell_angle_beta     60.00000038199715
_cell_angle_gamma    60.00000083663442

_space_group_name_H-M_alt    "P 1"
_space_group_IT_number       1

loop_
  _space_group_symop_operation_xyz
  'x, y, z'

loop_
  _atom_site_type_symbol
  _atom_site_label
  _atom_site_symmetry_multiplicity
  _atom_site_fract_x
  _atom_site_fract_y
  _atom_site_fract_z
  _atom_site_occupancy
  K   K1        1.0  0.24999999646320417  0.25000000883894863  0.24999999685807792  1.0000
  K   K2        1.0  0.7500000044111256  0.7499999944209903  0.7500000003593174  1.0000
  Si  Si1       1.0  0.9999999971180702  0.0  6.432613794660217e-09  1.0000
  I   I1        1.0  0.241227209563679  0.24122721149034018  0.758772794836691  1.0000
  I   I2        1.0  0.7587727936831224  0.7587727932979731  0.24122720417401813  1.0000
  I   I3        1.0  0.758772771388676  0.24122723988880712  0.2412272119922949  1.0000
  I   I4        1.0  0.2412272330518598  0.7587727526725134  0.7587727825517456  1.0000
  I   I5        1.0  0.2412272375703517  0.7587727561673719  0.2412272154382436  1.0000
  I   I6        1.0  0.7587727571180696  0.24122724403581877  0.7587727851525677  1.0000
