data_image0
_chemical_formula_structural       K2SiBr6
_chemical_formula_sum              "K2 Si1 Br6"
_cell_length_a       7.348894809914842
_cell_length_b       7.348894868562474
_cell_length_c       7.348894589843406
_cell_angle_alpha    60.00000077788652
_cell_angle_beta     60.00000194624237
_cell_angle_gamma    59.9999977698747

_space_group_name_H-M_alt    "P 1"
_space_group_IT_number       1

loop_
  _space_group_symop_operation_xyz
  'x, y, z'

loop_
  _atom_site_type_symbol
  _atom_site_label
  _atom_site_symmetry_multiplicity
  _atom_site_fract_x
  _atom_site_fract_y
  _atom_site_fract_z
  _atom_site_occupancy
  K   K1        1.0  0.25000006048345186  0.24999996060140767  0.24999997880670363  1.0000
  K   K2        1.0  0.7499999885015324  0.7499999751321571  0.7500000433820063  1.0000
  Si  Si1       1.0  1.0373569365257477e-07  0.9999999433366132  0.999999784598257  1.0000
  Br  Br1       1.0  0.23614700281944623  0.23614687725327205  0.7638529887199647  1.0000
  Br  Br2       1.0  0.7638528720255507  0.7638530718128609  0.2361469995695486  1.0000
  Br  Br3       1.0  0.7638530105055218  0.23614694122943872  0.23614705388660873  1.0000
  Br  Br4       1.0  0.23614688784011148  0.7638532861539047  0.7638530610867496  1.0000
  Br  Br5       1.0  0.2361468895382838  0.763853209249381  0.236146846737462  1.0000
  Br  Br6       1.0  0.76385322118595  0.23614672981732124  0.7638532109524985  1.0000
