data_image0
_chemical_formula_structural       K2SI6
_chemical_formula_sum              "K2 S1 I6"
_cell_length_a       7.848259051116294
_cell_length_b       7.84825698179586
_cell_length_c       7.848256739527083
_cell_angle_alpha    60.00001204068066
_cell_angle_beta     59.999997211614044
_cell_angle_gamma    59.99998731929737

_space_group_name_H-M_alt    "P 1"
_space_group_IT_number       1

loop_
  _space_group_symop_operation_xyz
  'x, y, z'

loop_
  _atom_site_type_symbol
  _atom_site_label
  _atom_site_symmetry_multiplicity
  _atom_site_fract_x
  _atom_site_fract_y
  _atom_site_fract_z
  _atom_site_occupancy
  K   K1        1.0  0.24999994770924078  0.25000012554691725  0.25000016058976904  1.0000
  K   K2        1.0  0.7500000850355963  0.7499999069207612  0.749999829900151  1.0000
  S   S1        1.0  1.6138222361355083e-07  0.9999998954443505  0.99999968489882  1.0000
  I   I1        1.0  0.25748889933666214  0.25748974947645276  0.7425107007431864  1.0000
  I   I2        1.0  0.7425112105089651  0.7425103032781251  0.2574892920196158  1.0000
  I   I3        1.0  0.7425110860525509  0.25748897754461575  0.2574887142635798  1.0000
  I   I4        1.0  0.2574886604322373  0.7425109956229504  0.7425115611332542  1.0000
  I   I5        1.0  0.25748888986911245  0.7425108309187156  0.25748927779636827  1.0000
  I   I6        1.0  0.7425110598005403  0.25748918594367154  0.7425107938880039  1.0000
