data_image0
_chemical_formula_structural       K2SnCl6
_chemical_formula_sum              "K2 Sn1 Cl6"
_cell_length_a       7.243121021982705
_cell_length_b       7.243120967923783
_cell_length_c       7.243120816919992
_cell_angle_alpha    60.00000042880301
_cell_angle_beta     59.9999996215674
_cell_angle_gamma    59.999997123124686

_space_group_name_H-M_alt    "P 1"
_space_group_IT_number       1

loop_
  _space_group_symop_operation_xyz
  'x, y, z'

loop_
  _atom_site_type_symbol
  _atom_site_label
  _atom_site_symmetry_multiplicity
  _atom_site_fract_x
  _atom_site_fract_y
  _atom_site_fract_z
  _atom_site_occupancy
  K   K1        1.0  0.24999997912266989  0.2500000170090296  0.25000001573692615  1.0000
  K   K2        1.0  0.7499999956296634  0.7500000053725795  0.7499999704955678  1.0000
  Sn  Sn1       1.0  2.1793888368155053e-07  0.9999999966181777  1.4216057967614948e-08  1.0000
  Cl  Cl1       1.0  0.24121802183068644  0.24121807965109465  0.7587819785659108  1.0000
  Cl  Cl2       1.0  0.7587819019569274  0.758781856494225  0.24121811906631913  1.0000
  Cl  Cl3       1.0  0.7587820549192553  0.2412179690876024  0.2412178922177089  1.0000
  Cl  Cl4       1.0  0.24121791592081243  0.7587820076394997  0.758782081521422  1.0000
  Cl  Cl5       1.0  0.24121790030693369  0.7587820607072117  0.2412179305985025  1.0000
  Cl  Cl6       1.0  0.7587820174077243  0.24121799887436796  0.7587820103280303  1.0000
