data_image0
_chemical_formula_structural       K2SnBr6
_chemical_formula_sum              "K2 Sn1 Br6"
_cell_length_a       7.578854369853793
_cell_length_b       7.578854650880577
_cell_length_c       7.578854572512779
_cell_angle_alpha    59.99999897595211
_cell_angle_beta     59.99999966329588
_cell_angle_gamma    60.00000206938781

_space_group_name_H-M_alt    "P 1"
_space_group_IT_number       1

loop_
  _space_group_symop_operation_xyz
  'x, y, z'

loop_
  _atom_site_type_symbol
  _atom_site_label
  _atom_site_symmetry_multiplicity
  _atom_site_fract_x
  _atom_site_fract_y
  _atom_site_fract_z
  _atom_site_occupancy
  K   K1        1.0  0.25000000268825856  0.25000001648803954  0.2500000289436377  1.0000
  K   K2        1.0  0.7499999876746892  0.7499999735119991  0.7499999951391934  1.0000
  Sn  Sn1       1.0  0.9999999156036229  0.9999999515199152  3.72553090289414e-07  1.0000
  Br  Br1       1.0  0.24732671569187642  0.2473267402215988  0.752673279418481  1.0000
  Br  Br2       1.0  0.7526733951554593  0.7526733499706022  0.24732666203474724  1.0000
  Br  Br3       1.0  0.7526733408475794  0.24732664636577148  0.24732662680478512  1.0000
  Br  Br4       1.0  0.24732688125837443  0.7526730689138368  0.752673207653066  1.0000
  Br  Br5       1.0  0.24732661409663836  0.7526733638184893  0.24732662678313233  1.0000
  Br  Br6       1.0  0.7526731483863927  0.24732688474196055  0.7526732157074126  1.0000
