data_image0
_chemical_formula_structural       K2SnI6
_chemical_formula_sum              "K2 Sn1 I6"
_cell_length_a       8.28705768941887
_cell_length_b       8.287056923884112
_cell_length_c       8.287057286187585
_cell_angle_alpha    60.000002616651024
_cell_angle_beta     59.99999575243956
_cell_angle_gamma    60.00000257667534

_space_group_name_H-M_alt    "P 1"
_space_group_IT_number       1

loop_
  _space_group_symop_operation_xyz
  'x, y, z'

loop_
  _atom_site_type_symbol
  _atom_site_label
  _atom_site_symmetry_multiplicity
  _atom_site_fract_x
  _atom_site_fract_y
  _atom_site_fract_z
  _atom_site_occupancy
  K   K1        1.0  0.25000004791225094  0.24999996079532139  0.24999994964827785  1.0000
  K   K2        1.0  0.7499999799628045  0.7500000434771573  0.7499999914702358  1.0000
  Sn  Sn1       1.0  0.9999999345112198  4.4306696402719657e-16  7.739232836208337e-08  1.0000
  I   I1        1.0  0.25534510292757756  0.25534511458281006  0.7446549111696189  1.0000
  I   I2        1.0  0.7446549183041691  0.7446548970791775  0.25534510439125474  1.0000
  I   I3        1.0  0.744654935074965  0.25534504196422914  0.25534514493872024  1.0000
  I   I4        1.0  0.25534517150544767  0.7446549268386349  0.7446548047294418  1.0000
  I   I5        1.0  0.25534497760285324  0.7446548594806816  0.25534528418130414  1.0000
  I   I6        1.0  0.7446549401808197  0.2553451699161081  0.7446547199346674  1.0000
