data_image0
_chemical_formula_structural       K2SnF6
_chemical_formula_sum              "K2 Sn1 F6"
_cell_length_a       6.1577483132958415
_cell_length_b       6.1577480532149504
_cell_length_c       6.157748628246317
_cell_angle_alpha    59.999997600084534
_cell_angle_beta     59.999995593054024
_cell_angle_gamma    59.99999652800104

_space_group_name_H-M_alt    "P 1"
_space_group_IT_number       1

loop_
  _space_group_symop_operation_xyz
  'x, y, z'

loop_
  _atom_site_type_symbol
  _atom_site_label
  _atom_site_symmetry_multiplicity
  _atom_site_fract_x
  _atom_site_fract_y
  _atom_site_fract_z
  _atom_site_occupancy
  K   K1        1.0  0.250000037574375  0.2500000006764242  0.2500000153527398  1.0000
  K   K2        1.0  0.7499999413032522  0.7500000099850687  0.7499999605213352  1.0000
  Sn  Sn1       1.0  0.9999999925187198  0.9999999661878606  7.654948497094131e-09  1.0000
  F   F1        1.0  0.22947315178919078  0.22947309378336078  0.7705268642414117  1.0000
  F   F2        1.0  0.770526837335398  0.7705269367676266  0.22947314690750986  1.0000
  F   F3        1.0  0.7705268843416656  0.2294730738038092  0.22947324583278758  1.0000
  F   F4        1.0  0.22947312488040167  0.7705269189571393  0.7705267351871301  1.0000
  F   F5        1.0  0.22947318222699195  0.7705268813338764  0.22947320542092844  1.0000
  F   F6        1.0  0.770526889217906  0.229473093526527  0.7705267355741734  1.0000
