data_image0
_chemical_formula_structural       K2TaI6
_chemical_formula_sum              "K2 Ta1 I6"
_cell_length_a       8.249378030388756
_cell_length_b       8.249378142170308
_cell_length_c       8.24937853823248
_cell_angle_alpha    59.9999970885339
_cell_angle_beta     59.99999719133518
_cell_angle_gamma    60.000001276112116

_space_group_name_H-M_alt    "P 1"
_space_group_IT_number       1

loop_
  _space_group_symop_operation_xyz
  'x, y, z'

loop_
  _atom_site_type_symbol
  _atom_site_label
  _atom_site_symmetry_multiplicity
  _atom_site_fract_x
  _atom_site_fract_y
  _atom_site_fract_z
  _atom_site_occupancy
  K   K1        1.0  0.24999997654289877  0.25000022150704404  0.24999990682067508  1.0000
  K   K2        1.0  0.7500000202315183  0.7499997544299685  0.7500000562612406  1.0000
  Ta  Ta1       1.0  0.9999999091016412  0.999999995546042  1.6041192392491795e-07  1.0000
  I   I1        1.0  0.2414390832629973  0.24143905585677045  0.75856093531626  1.0000
  I   I2        1.0  0.758560962203983  0.7585610091593131  0.24143901100497628  1.0000
  I   I3        1.0  0.7585608950181406  0.24143910166499719  0.24143910464226118  1.0000
  I   I4        1.0  0.24143919771751413  0.7585608089473675  0.758560804330559  1.0000
  I   I5        1.0  0.24143911891026462  0.7585609146672978  0.241439126468935  1.0000
  I   I6        1.0  0.7585608387125676  0.2414391325329689  0.7585608860166221  1.0000
