data_image0
_chemical_formula_structural       K2TaBr6
_chemical_formula_sum              "K2 Ta1 Br6"
_cell_length_a       7.497756572856776
_cell_length_b       7.4977564290067855
_cell_length_c       7.4977557131472565
_cell_angle_alpha    60.00000316980228
_cell_angle_beta     60.00000333219289
_cell_angle_gamma    60.00000596763445

_space_group_name_H-M_alt    "P 1"
_space_group_IT_number       1

loop_
  _space_group_symop_operation_xyz
  'x, y, z'

loop_
  _atom_site_type_symbol
  _atom_site_label
  _atom_site_symmetry_multiplicity
  _atom_site_fract_x
  _atom_site_fract_y
  _atom_site_fract_z
  _atom_site_occupancy
  K   K1        1.0  0.24999996576261693  0.2499999651313497  0.2499999741430787  1.0000
  K   K2        1.0  0.7500000129765444  0.7500000473078561  0.750000062043135  1.0000
  Ta  Ta1       1.0  0.9999999386590371  1.7478254252089103e-07  0.9999999472804078  1.0000
  Br  Br1       1.0  0.24283378600372763  0.24283372455479169  0.7571661421126858  1.0000
  Br  Br2       1.0  0.7571661681397918  0.7571663662915359  0.24283368044524664  1.0000
  Br  Br3       1.0  0.7571663908486796  0.24283366493208147  0.24283359906030028  1.0000
  Br  Br4       1.0  0.2428335173118951  0.7571663605749749  0.7571663538477569  1.0000
  Br  Br5       1.0  0.2428336460124207  0.7571662403683849  0.2428338469776452  1.0000
  Br  Br6       1.0  0.7571665445453812  0.24283343230663085  0.7571664012256427  1.0000
