data_image0
_chemical_formula_structural       K2TaF6
_chemical_formula_sum              "K2 Ta1 F6"
_cell_length_a       6.029918204807988
_cell_length_b       6.029919233428459
_cell_length_c       6.029917706949854
_cell_angle_alpha    60.00000210320698
_cell_angle_beta     60.000002861430964
_cell_angle_gamma    59.999999370819275

_space_group_name_H-M_alt    "P 1"
_space_group_IT_number       1

loop_
  _space_group_symop_operation_xyz
  'x, y, z'

loop_
  _atom_site_type_symbol
  _atom_site_label
  _atom_site_symmetry_multiplicity
  _atom_site_fract_x
  _atom_site_fract_y
  _atom_site_fract_z
  _atom_site_occupancy
  K   K1        1.0  0.2500000140332275  0.24999989376755824  0.250000062113931  1.0000
  K   K2        1.0  0.7499999585717781  0.7499999778451967  0.7500001826551106  1.0000
  Ta  Ta1       1.0  7.800853379911122e-08  9.343120809531871e-08  0.9999998280434585  1.0000
  F   F1        1.0  0.23044009016074662  0.23043996901007874  0.7695599353500601  1.0000
  F   F2        1.0  0.7695599278786704  0.7695600305628227  0.23043996069490327  1.0000
  F   F3        1.0  0.769560052888734  0.23044003708827648  0.23043982214870223  1.0000
  F   F4        1.0  0.23043980506455145  0.7695601899692979  0.769560214328709  1.0000
  F   F5        1.0  0.23043993676115151  0.7695601087244315  0.23043988299100698  1.0000
  F   F6        1.0  0.7695601896208347  0.23043973242162685  0.7695601624759077  1.0000
