data_image0
_chemical_formula_structural       K2TaCl6
_chemical_formula_sum              "K2 Ta1 Cl6"
_cell_length_a       7.08600473589879
_cell_length_b       7.0860046550046984
_cell_length_c       7.086004933858833
_cell_angle_alpha    59.99999989580945
_cell_angle_beta     59.999999725619105
_cell_angle_gamma    59.999997328981074

_space_group_name_H-M_alt    "P 1"
_space_group_IT_number       1

loop_
  _space_group_symop_operation_xyz
  'x, y, z'

loop_
  _atom_site_type_symbol
  _atom_site_label
  _atom_site_symmetry_multiplicity
  _atom_site_fract_x
  _atom_site_fract_y
  _atom_site_fract_z
  _atom_site_occupancy
  K   K1        1.0  0.24999997040655364  0.2499999509250033  0.25000007007130304  1.0000
  K   K2        1.0  0.7500000224865316  0.7500000567261788  0.7499999157153454  1.0000
  Ta  Ta1       1.0  4.3472623588918566e-08  0.9999999135800104  4.828709872487785e-08  1.0000
  Cl  Cl1       1.0  0.24031345837197124  0.24031343922095874  0.7596865173220186  1.0000
  Cl  Cl2       1.0  0.7596864654219535  0.7596865459610274  0.24031344933211554  1.0000
  Cl  Cl3       1.0  0.7596865934804127  0.24031343266482805  0.2403134598661748  1.0000
  Cl  Cl4       1.0  0.24031344999367857  0.7596866285667463  0.7596865246441428  1.0000
  Cl  Cl5       1.0  0.24031341123645342  0.7596866124204579  0.24031344068094213  1.0000
  Cl  Cl6       1.0  0.7596865891294041  0.2403134021443236  0.7596865774270286  1.0000
