data_image0
_chemical_formula_structural       K2TeCl6
_chemical_formula_sum              "K2 Te1 Cl6"
_cell_length_a       7.323182213210352
_cell_length_b       7.32318211052824
_cell_length_c       7.32318203327969
_cell_angle_alpha    60.000000006391126
_cell_angle_beta     60.00000008025516
_cell_angle_gamma    59.999997316172056

_space_group_name_H-M_alt    "P 1"
_space_group_IT_number       1

loop_
  _space_group_symop_operation_xyz
  'x, y, z'

loop_
  _atom_site_type_symbol
  _atom_site_label
  _atom_site_symmetry_multiplicity
  _atom_site_fract_x
  _atom_site_fract_y
  _atom_site_fract_z
  _atom_site_occupancy
  K   K1        1.0  0.24999999700184417  0.25000002052933734  0.24999999922073426  1.0000
  K   K2        1.0  0.7500000119190119  0.749999984656612  0.7499999669535184  1.0000
  Te  Te1       1.0  0.9999999206830478  2.508632815623637e-08  0.9999999574734548  1.0000
  Cl  Cl1       1.0  0.2468365484847253  0.24683655242075087  0.7531634457283878  1.0000
  Cl  Cl2       1.0  0.7531635166425314  0.7531634544376186  0.24683650379619376  1.0000
  Cl  Cl3       1.0  0.753163564067775  0.24683646662022812  0.24683642268688666  1.0000
  Cl  Cl4       1.0  0.2468363903026904  0.7531635603072051  0.7531636104163049  1.0000
  Cl  Cl5       1.0  0.24683646017198294  0.7531635558546184  0.24683644106849742  1.0000
  Cl  Cl6       1.0  0.7531635952569189  0.2468363807620387  0.753163652206141  1.0000
