data_image0
_chemical_formula_structural       K2TeBr6
_chemical_formula_sum              "K2 Te1 Br6"
_cell_length_a       7.670359435702425
_cell_length_b       7.670359162142885
_cell_length_c       7.670359534165044
_cell_angle_alpha    59.9999987961616
_cell_angle_beta     59.999999292483075
_cell_angle_gamma    60.000002440653695

_space_group_name_H-M_alt    "P 1"
_space_group_IT_number       1

loop_
  _space_group_symop_operation_xyz
  'x, y, z'

loop_
  _atom_site_type_symbol
  _atom_site_label
  _atom_site_symmetry_multiplicity
  _atom_site_fract_x
  _atom_site_fract_y
  _atom_site_fract_z
  _atom_site_occupancy
  K   K1        1.0  0.2499999971964816  0.25000001138497174  0.2500000067417475  1.0000
  K   K2        1.0  0.7500000199495391  0.7499999942368091  0.7500000025372908  1.0000
  Te  Te1       1.0  0.9999999255672292  0.9999999297441272  0.9999998872161027  1.0000
  Br  Br1       1.0  0.2522199969122213  0.25221992728437154  0.7477800467090697  1.0000
  Br  Br2       1.0  0.7477800255405461  0.7477800895144792  0.25221992955738326  1.0000
  Br  Br3       1.0  0.7477799458487354  0.25222008428147674  0.25222007030309246  1.0000
  Br  Br4       1.0  0.2522200134056287  0.7477800363044504  0.7477799730182546  1.0000
  Br  Br5       1.0  0.2522200836264853  0.7477799473012939  0.25222004638956397  1.0000
  Br  Br6       1.0  0.7477799903310416  0.25221997369410243  0.7477800419829059  1.0000
