data_image0
_chemical_formula_structural       K2TeF6
_chemical_formula_sum              "K2 Te1 F6"
_cell_length_a       6.1984837441752525
_cell_length_b       6.198483548943033
_cell_length_c       6.1984839200940485
_cell_angle_alpha    59.99999928173138
_cell_angle_beta     60.00000035209232
_cell_angle_gamma    60.00000212143688

_space_group_name_H-M_alt    "P 1"
_space_group_IT_number       1

loop_
  _space_group_symop_operation_xyz
  'x, y, z'

loop_
  _atom_site_type_symbol
  _atom_site_label
  _atom_site_symmetry_multiplicity
  _atom_site_fract_x
  _atom_site_fract_y
  _atom_site_fract_z
  _atom_site_occupancy
  K   K1        1.0  0.2499999686213813  0.2500000042865989  0.25000005224199773  1.0000
  K   K2        1.0  0.7500000510748384  0.749999985197505  0.7499999672746772  1.0000
  Te  Te1       1.0  0.9999999678984901  0.9999999901206076  3.244175762961213e-09  1.0000
  F   F1        1.0  0.23805154653060812  0.23805148169703103  0.7619484791716725  1.0000
  F   F2        1.0  0.7619484759131173  0.761948493955925  0.23805150071448716  1.0000
  F   F3        1.0  0.761948471960441  0.23805151053467627  0.23805154185809355  1.0000
  F   F4        1.0  0.23805155804779057  0.761948459190646  0.7619485162612184  1.0000
  F   F5        1.0  0.23805156373786138  0.761948438441395  0.23805152222357195  1.0000
  F   F6        1.0  0.7619483691360491  0.23805161031905248  0.7619484465341763  1.0000
