data_image0
_chemical_formula_structural       K2TeI6
_chemical_formula_sum              "K2 Te1 I6"
_cell_length_a       8.316916860628249
_cell_length_b       8.316917014262286
_cell_length_c       8.316916934499565
_cell_angle_alpha    59.999999595125345
_cell_angle_beta     60.00000065398174
_cell_angle_gamma    60.000000750780956

_space_group_name_H-M_alt    "P 1"
_space_group_IT_number       1

loop_
  _space_group_symop_operation_xyz
  'x, y, z'

loop_
  _atom_site_type_symbol
  _atom_site_label
  _atom_site_symmetry_multiplicity
  _atom_site_fract_x
  _atom_site_fract_y
  _atom_site_fract_z
  _atom_site_occupancy
  K   K1        1.0  0.24999997069755442  0.24999992721334624  0.25000006623003596  1.0000
  K   K2        1.0  0.7500000294403382  0.7500000835219737  0.7499999265521334  1.0000
  Te  Te1       1.0  0.9999999386443642  3.8287462819838073e-08  1.4259226625145268e-07  1.0000
  I   I1        1.0  0.2524495048993391  0.2524495297768206  0.7475504921704182  1.0000
  I   I2        1.0  0.7475505096973944  0.7475504750681202  0.25244949632752006  1.0000
  I   I3        1.0  0.7475504964144819  0.2524494826999339  0.2524495878958135  1.0000
  I   I4        1.0  0.25244957294733533  0.7475504411522944  0.7475503283477678  1.0000
  I   I5        1.0  0.2524495138120036  0.7475505044096644  0.252449550070114  1.0000
  I   I6        1.0  0.7475504667201905  0.2524495151612245  0.7475504072165865  1.0000
