data_image0
_chemical_formula_structural       K2TiCl6
_chemical_formula_sum              "K2 Ti1 Cl6"
_cell_length_a       7.064534241006402
_cell_length_b       7.064534671178342
_cell_length_c       7.064535092679111
_cell_angle_alpha    59.99999695345922
_cell_angle_beta     59.99999791883084
_cell_angle_gamma    60.00000089067057

_space_group_name_H-M_alt    "P 1"
_space_group_IT_number       1

loop_
  _space_group_symop_operation_xyz
  'x, y, z'

loop_
  _atom_site_type_symbol
  _atom_site_label
  _atom_site_symmetry_multiplicity
  _atom_site_fract_x
  _atom_site_fract_y
  _atom_site_fract_z
  _atom_site_occupancy
  K   K1        1.0  0.25000003233703155  0.25000001856486187  0.2499999964601118  1.0000
  K   K2        1.0  0.7499999957059004  0.7499999967503959  0.7500000341169938  1.0000
  Ti  Ti1       1.0  0.9999999865754977  1.0401915379413906e-07  6.794437838481506e-08  1.0000
  Cl  Cl1       1.0  0.2370933252032425  0.2370933238520643  0.7629066341217458  1.0000
  Cl  Cl2       1.0  0.7629065833566596  0.7629066429209185  0.2370934592351911  1.0000
  Cl  Cl3       1.0  0.7629066160757132  0.2370933272614738  0.237093526455933  1.0000
  Cl  Cl4       1.0  0.23709358321340196  0.7629065077539197  0.7629063359544165  1.0000
  Cl  Cl5       1.0  0.23709335618783436  0.7629066583634664  0.2370934535288454  1.0000
  Cl  Cl6       1.0  0.7629065556721805  0.23709342109693762  0.7629064841633528  1.0000
