data_image0
_chemical_formula_structural       K2TiI6
_chemical_formula_sum              "K2 Ti1 I6"
_cell_length_a       8.182903741320594
_cell_length_b       8.182903318295184
_cell_length_c       8.182903163135913
_cell_angle_alpha    60.0000025103912
_cell_angle_beta     59.999997593992795
_cell_angle_gamma    60.00000050534708

_space_group_name_H-M_alt    "P 1"
_space_group_IT_number       1

loop_
  _space_group_symop_operation_xyz
  'x, y, z'

loop_
  _atom_site_type_symbol
  _atom_site_label
  _atom_site_symmetry_multiplicity
  _atom_site_fract_x
  _atom_site_fract_y
  _atom_site_fract_z
  _atom_site_occupancy
  K   K1        1.0  0.24999997760978773  0.2500000240099341  0.2500000021489778  1.0000
  K   K2        1.0  0.7500000322358683  0.74999998971065  0.749999973462049  1.0000
  Ti  Ti1       1.0  7.393555502488877e-08  0.9999998967268787  0.9999999156819055  1.0000
  I   I1        1.0  0.24031551754081232  0.24031544831529772  0.7596844846087623  1.0000
  I   I2        1.0  0.7596845110919989  0.7596845175105058  0.24031547256045133  1.0000
  I   I3        1.0  0.7596845523237925  0.24031543062040053  0.24031541546472665  1.0000
  I   I4        1.0  0.2403153086260898  0.759684695353581  0.7596848167692278  1.0000
  I   I5        1.0  0.2403155294706641  0.759684445960099  0.24031541956803593  1.0000
  I   I6        1.0  0.7596845024685931  0.24031554381309359  0.7596845019771775  1.0000
