data_image0
_chemical_formula_structural       K2TiF6
_chemical_formula_sum              "K2 Ti1 F6"
_cell_length_a       5.921564815654598
_cell_length_b       5.921564528404801
_cell_length_c       5.921564376918364
_cell_angle_alpha    60.000000199522006
_cell_angle_beta     60.000000413062324
_cell_angle_gamma    60.000000468733056

_space_group_name_H-M_alt    "P 1"
_space_group_IT_number       1

loop_
  _space_group_symop_operation_xyz
  'x, y, z'

loop_
  _atom_site_type_symbol
  _atom_site_label
  _atom_site_symmetry_multiplicity
  _atom_site_fract_x
  _atom_site_fract_y
  _atom_site_fract_z
  _atom_site_occupancy
  K   K1        1.0  0.2499999336059702  0.25000002035002955  0.25000007056104845  1.0000
  K   K2        1.0  0.7500001213466535  0.7499999886603207  0.7499999238055884  1.0000
  Ti  Ti1       1.0  4.805689317459298e-09  2.068279201421875e-08  0.9999999990769597  1.0000
  F   F1        1.0  0.2257289919714816  0.2257288238582427  0.7742710593171583  1.0000
  F   F2        1.0  0.7742711107475476  0.7742711003526612  0.22572885393016567  1.0000
  F   F3        1.0  0.7742710867549496  0.22572883888569512  0.2257287921697271  1.0000
  F   F4        1.0  0.22572883155963616  0.7742712114902374  0.7742712954291988  1.0000
  F   F5        1.0  0.2257288469501919  0.7742711347614573  0.22572876821255036  1.0000
  F   F6        1.0  0.7742710746155437  0.2257288473612617  0.7742712742052329  1.0000
