data_image0
_chemical_formula_structural       K2TiBr6
_chemical_formula_sum              "K2 Ti1 Br6"
_cell_length_a       7.513747311136166
_cell_length_b       7.51374719102967
_cell_length_c       7.513747284648113
_cell_angle_alpha    60.000001666401815
_cell_angle_beta     59.99999890766387
_cell_angle_gamma    60.00000181183074

_space_group_name_H-M_alt    "P 1"
_space_group_IT_number       1

loop_
  _space_group_symop_operation_xyz
  'x, y, z'

loop_
  _atom_site_type_symbol
  _atom_site_label
  _atom_site_symmetry_multiplicity
  _atom_site_fract_x
  _atom_site_fract_y
  _atom_site_fract_z
  _atom_site_occupancy
  K   K1        1.0  0.25000002448853736  0.2500000100952607  0.24999998404181512  1.0000
  K   K2        1.0  0.7499999736066498  0.7499999748655973  0.7500000310959127  1.0000
  Ti  Ti1       1.0  0.9999999773051276  8.15003564632127e-09  3.2934872874470593e-07  1.0000
  Br  Br1       1.0  0.23970194025036207  0.23970192866836004  0.760298101100606  1.0000
  Br  Br2       1.0  0.7602981131690433  0.7602980562924989  0.23970189569126873  1.0000
  Br  Br3       1.0  0.760298162587201  0.23970190856596135  0.23970185690699614  1.0000
  Br  Br4       1.0  0.2397019866109005  0.7602979965246309  0.7602979815396576  1.0000
  Br  Br5       1.0  0.23970193333492468  0.7602980601197818  0.23970193930119169  1.0000
  Br  Br6       1.0  0.760297867785524  0.2397020731715575  0.760297889877442  1.0000
