data_image0
_chemical_formula_structural       K2VBr6
_chemical_formula_sum              "K2 V1 Br6"
_cell_length_a       7.411943375117307
_cell_length_b       7.411943676701467
_cell_length_c       7.4119429847038285
_cell_angle_alpha    60.00000108136407
_cell_angle_beta     60.00000262590562
_cell_angle_gamma    59.9999979247159

_space_group_name_H-M_alt    "P 1"
_space_group_IT_number       1

loop_
  _space_group_symop_operation_xyz
  'x, y, z'

loop_
  _atom_site_type_symbol
  _atom_site_label
  _atom_site_symmetry_multiplicity
  _atom_site_fract_x
  _atom_site_fract_y
  _atom_site_fract_z
  _atom_site_occupancy
  K   K1        1.0  0.25000000353750657  0.25000000821064383  0.24999998224156073  1.0000
  K   K2        1.0  0.7499999862694806  0.7499999667981536  0.7500000201932648  1.0000
  V   V1        1.0  0.9999999085786824  0.9999996199494717  0.9999998943949322  1.0000
  Br  Br1       1.0  0.2380655046347943  0.2380653775878254  0.7619345036147891  1.0000
  Br  Br2       1.0  0.7619347837634596  0.761934870065915  0.23806513090232176  1.0000
  Br  Br3       1.0  0.7619346203646775  0.23806532428562163  0.23806528967592158  1.0000
  Br  Br4       1.0  0.2380650825173719  0.7619349646779747  0.7619350095539631  1.0000
  Br  Br5       1.0  0.23806531974695933  0.7619347717969283  0.2380651616115815  1.0000
  Br  Br6       1.0  0.7619348098464206  0.2380651437256862  0.7619350043983995  1.0000
