data_image0
_chemical_formula_structural       K2VCl6
_chemical_formula_sum              "K2 V1 Cl6"
_cell_length_a       7.039584890685768
_cell_length_b       7.039585332906567
_cell_length_c       7.039584924662747
_cell_angle_alpha    59.99999949895586
_cell_angle_beta     59.99999837615411
_cell_angle_gamma    60.00000339929384

_space_group_name_H-M_alt    "P 1"
_space_group_IT_number       1

loop_
  _space_group_symop_operation_xyz
  'x, y, z'

loop_
  _atom_site_type_symbol
  _atom_site_label
  _atom_site_symmetry_multiplicity
  _atom_site_fract_x
  _atom_site_fract_y
  _atom_site_fract_z
  _atom_site_occupancy
  K   K1        1.0  0.24999996065727856  0.2500000179967709  0.2500000541435842  1.0000
  K   K2        1.0  0.750000026252555  0.7500000000566159  0.7500000504919407  1.0000
  V   V1        1.0  0.9999999273606788  1.391837447772265e-07  7.895031215025641e-08  1.0000
  Cl  Cl1       1.0  0.23379348291960012  0.23379346985372004  0.7662065473408995  1.0000
  Cl  Cl2       1.0  0.7662065862211223  0.7662065081843429  0.23379347510369597  1.0000
  Cl  Cl3       1.0  0.7662064153721604  0.2337936461753668  0.2337934393673745  1.0000
  Cl  Cl4       1.0  0.23379373109563237  0.7662062622708277  0.766206397380718  1.0000
  Cl  Cl5       1.0  0.23379358781954515  0.7662062826266651  0.23379357511111776  1.0000
  Cl  Cl6       1.0  0.7662063038053101  0.2337936571358631  0.7662064387450408  1.0000
