data_image0
_chemical_formula_structural       K2VF6
_chemical_formula_sum              "K2 V1 F6"
_cell_length_a       5.949207377342901
_cell_length_b       5.949207386019172
_cell_length_c       5.949207686417015
_cell_angle_alpha    60.00000034912138
_cell_angle_beta     59.99999827168553
_cell_angle_gamma    60.00000041676149

_space_group_name_H-M_alt    "P 1"
_space_group_IT_number       1

loop_
  _space_group_symop_operation_xyz
  'x, y, z'

loop_
  _atom_site_type_symbol
  _atom_site_label
  _atom_site_symmetry_multiplicity
  _atom_site_fract_x
  _atom_site_fract_y
  _atom_site_fract_z
  _atom_site_occupancy
  K   K1        1.0  0.25000002201996785  0.2499999897449318  0.2500000024179761  1.0000
  K   K2        1.0  0.749999926390154  0.750000033053532  0.7500000266895785  1.0000
  V   V1        1.0  0.9999999764531442  4.734938683530409e-08  2.171665719951329e-08  1.0000
  F   F1        1.0  0.22364114866882356  0.22364124006598698  0.77635885669666  1.0000
  F   F2        1.0  0.7763588944937432  0.7763588012604977  0.22364110568528545  1.0000
  F   F3        1.0  0.7763588467417107  0.22364117308170522  0.22364125744471688  1.0000
  F   F4        1.0  0.2236412013052172  0.7763587138446069  0.7763587679288594  1.0000
  F   F5        1.0  0.22364129212204598  0.7763587094056185  0.22364129692050794  1.0000
  F   F6        1.0  0.7763586781092742  0.22364128868881705  0.7763587033723314  1.0000
