data_image0
_chemical_formula_structural       K2VI6
_chemical_formula_sum              "K2 V1 I6"
_cell_length_a       8.100494443688458
_cell_length_b       8.100494942007565
_cell_length_c       8.100495486691406
_cell_angle_alpha    59.99999464031799
_cell_angle_beta     59.999994094301066
_cell_angle_gamma    59.9999969797682

_space_group_name_H-M_alt    "P 1"
_space_group_IT_number       1

loop_
  _space_group_symop_operation_xyz
  'x, y, z'

loop_
  _atom_site_type_symbol
  _atom_site_label
  _atom_site_symmetry_multiplicity
  _atom_site_fract_x
  _atom_site_fract_y
  _atom_site_fract_z
  _atom_site_occupancy
  K   K1        1.0  0.25000004107921403  0.25000004805249415  0.24999998795926365  1.0000
  K   K2        1.0  0.7499999245243401  0.7499999748203869  0.7500000343296968  1.0000
  V   V1        1.0  1.4344129093817924e-07  0.9999999032359423  0.9999999766613838  1.0000
  I   I1        1.0  0.23771068170662502  0.23771084851846264  0.7622892637401864  1.0000
  I   I2        1.0  0.7622894390433459  0.7622891365559616  0.2377105776600466  1.0000
  I   I3        1.0  0.7622891686627017  0.23771091144129908  0.2377108243459685  1.0000
  I   I4        1.0  0.23771060451479012  0.7622892354105281  0.762289333394925  1.0000
  I   I5        1.0  0.23771082873691504  0.7622891918266104  0.2377106543979536  1.0000
  I   I6        1.0  0.7622891876524263  0.23771073428221492  0.7622893402659549  1.0000
