data_image0
_chemical_formula_structural       K2WBr6
_chemical_formula_sum              "K2 W1 Br6"
_cell_length_a       7.510382820609784
_cell_length_b       7.510383038550285
_cell_length_c       7.510382612641257
_cell_angle_alpha    59.999999983030754
_cell_angle_beta     59.99999971407501
_cell_angle_gamma    59.99999827853919

_space_group_name_H-M_alt    "P 1"
_space_group_IT_number       1

loop_
  _space_group_symop_operation_xyz
  'x, y, z'

loop_
  _atom_site_type_symbol
  _atom_site_label
  _atom_site_symmetry_multiplicity
  _atom_site_fract_x
  _atom_site_fract_y
  _atom_site_fract_z
  _atom_site_occupancy
  K   K1        1.0  0.250000000145529  0.24999999500181821  0.2500000476655659  1.0000
  K   K2        1.0  0.7500000067570022  0.7500000029435487  0.7499999697571419  1.0000
  W   W1        1.0  0.9999999203924954  3.5876196981175715e-08  0.9999992828886556  1.0000
  Br  Br1       1.0  0.2404901535896415  0.24049025119162712  0.759509788969842  1.0000
  Br  Br2       1.0  0.7595098976037942  0.7595097891528637  0.24049017179294965  1.0000
  Br  Br3       1.0  0.759509741524865  0.24049029514289832  0.240490252159969  1.0000
  Br  Br4       1.0  0.24048989143860605  0.7595101235322492  0.7595100720769177  1.0000
  Br  Br5       1.0  0.24049018807439898  0.759509695275155  0.24049031545682922  1.0000
  Br  Br6       1.0  0.7595102028473941  0.24048981018805468  0.759510095727302  1.0000
