data_image0
_chemical_formula_structural       K2WCl6
_chemical_formula_sum              "K2 W1 Cl6"
_cell_length_a       7.139709672096085
_cell_length_b       7.139709626724045
_cell_length_c       7.139709914066073
_cell_angle_alpha    59.999998664172374
_cell_angle_beta     59.99999888125658
_cell_angle_gamma    60.00000285647267

_space_group_name_H-M_alt    "P 1"
_space_group_IT_number       1

loop_
  _space_group_symop_operation_xyz
  'x, y, z'

loop_
  _atom_site_type_symbol
  _atom_site_label
  _atom_site_symmetry_multiplicity
  _atom_site_fract_x
  _atom_site_fract_y
  _atom_site_fract_z
  _atom_site_occupancy
  K   K1        1.0  0.2500000033284587  0.2499999619642934  0.25000003457250713  1.0000
  K   K2        1.0  0.7499999724259884  0.7500000179785795  0.7499999724173377  1.0000
  W   W1        1.0  0.9999999407656057  0.9999999399610424  1.9689715455996204e-07  1.0000
  Cl  Cl1       1.0  0.2376913070674564  0.2376912740275331  0.7623087312889987  1.0000
  Cl  Cl2       1.0  0.7623088069725515  0.762308776246693  0.23769123722139415  1.0000
  Cl  Cl3       1.0  0.7623086544234011  0.23769136535343852  0.2376913436023567  1.0000
  Cl  Cl4       1.0  0.23769142269922408  0.762308528819503  0.7623086275760222  1.0000
  Cl  Cl5       1.0  0.23769136631483762  0.7623086008977538  0.23769138666466316  1.0000
  Cl  Cl6       1.0  0.7623085251580923  0.23769153000020227  0.7623084693365598  1.0000
