data_image0
_chemical_formula_structural       K2WF6
_chemical_formula_sum              "K2 W1 F6"
_cell_length_a       5.993135821401815
_cell_length_b       5.993135850874586
_cell_length_c       5.993135874903338
_cell_angle_alpha    60.000002290364925
_cell_angle_beta     59.99999998529933
_cell_angle_gamma    60.00000040929848

_space_group_name_H-M_alt    "P 1"
_space_group_IT_number       1

loop_
  _space_group_symop_operation_xyz
  'x, y, z'

loop_
  _atom_site_type_symbol
  _atom_site_label
  _atom_site_symmetry_multiplicity
  _atom_site_fract_x
  _atom_site_fract_y
  _atom_site_fract_z
  _atom_site_occupancy
  K   K1        1.0  0.24999999228929481  0.2499999983081534  0.2499999835373902  1.0000
  K   K2        1.0  0.7499999985291371  0.7499999704015113  0.7500000688433068  1.0000
  W   W1        1.0  1.1483461657910856e-08  0.9999999366490394  0.9999999541849997  1.0000
  F   F1        1.0  0.23814410446370174  0.2381441842117327  0.7618558547042685  1.0000
  F   F2        1.0  0.7618558909460509  0.7618558805461576  0.23814407227075735  1.0000
  F   F3        1.0  0.7618559786108885  0.23814410093429836  0.2381440834639434  1.0000
  F   F4        1.0  0.2381440139772692  0.7618559433878008  0.7618559252199484  1.0000
  F   F5        1.0  0.23814415838032307  0.7618558294225963  0.2381442295861966  1.0000
  F   F6        1.0  0.7618558402417508  0.23814416789717952  0.7618558296162579  1.0000
