data_image0
_chemical_formula_structural       K2WI6
_chemical_formula_sum              "K2 W1 I6"
_cell_length_a       8.149903007696684
_cell_length_b       8.149902749081122
_cell_length_c       8.149903703557674
_cell_angle_alpha    59.99999511934293
_cell_angle_beta     59.9999987813407
_cell_angle_gamma    60.000003754304785

_space_group_name_H-M_alt    "P 1"
_space_group_IT_number       1

loop_
  _space_group_symop_operation_xyz
  'x, y, z'

loop_
  _atom_site_type_symbol
  _atom_site_label
  _atom_site_symmetry_multiplicity
  _atom_site_fract_x
  _atom_site_fract_y
  _atom_site_fract_z
  _atom_site_occupancy
  K   K1        1.0  0.2500000915334296  0.24999993426749104  0.2500000542719521  1.0000
  K   K2        1.0  0.749999972511475  0.7500000417432688  0.7499999551232293  1.0000
  W   W1        1.0  0.9999997083939329  0.9999998377005522  4.122310179335793e-07  1.0000
  I   I1        1.0  0.24018557238435445  0.24018556001042837  0.7598144074596708  1.0000
  I   I2        1.0  0.7598146267992568  0.7598146354051171  0.2401853473622377  1.0000
  I   I3        1.0  0.7598144765824563  0.2401855241802688  0.2401855894956798  1.0000
  I   I4        1.0  0.24018562930919615  0.759814436802772  0.7598142886971848  1.0000
  I   I5        1.0  0.2401855893800922  0.7598144293543501  0.24018561442337752  1.0000
  I   I6        1.0  0.7598143218758049  0.24018558422571015  0.7598143495129526  1.0000
