data_image0
_chemical_formula_structural       K2ZrBr6
_chemical_formula_sum              "K2 Zr1 Br6"
_cell_length_a       7.663804528763307
_cell_length_b       7.6638041772409276
_cell_length_c       7.663804526605727
_cell_angle_alpha    60.00000105231795
_cell_angle_beta     59.99999828918299
_cell_angle_gamma    60.00000196878861

_space_group_name_H-M_alt    "P 1"
_space_group_IT_number       1

loop_
  _space_group_symop_operation_xyz
  'x, y, z'

loop_
  _atom_site_type_symbol
  _atom_site_label
  _atom_site_symmetry_multiplicity
  _atom_site_fract_x
  _atom_site_fract_y
  _atom_site_fract_z
  _atom_site_occupancy
  K   K1        1.0  0.25000001941374167  0.24999996812992095  0.25000001521360743  1.0000
  K   K2        1.0  0.7499999929336963  0.7500000370312266  0.749999985877159  1.0000
  Zr  Zr1       1.0  0.9999999178916886  6.552169231853083e-08  1.8705570008134052e-07  1.0000
  Br  Br1       1.0  0.24464761100161866  0.24464756856612066  0.7553523926399157  1.0000
  Br  Br2       1.0  0.7553524045106392  0.7553524813415442  0.24464754274046463  1.0000
  Br  Br3       1.0  0.7553524386221648  0.24464752434919151  0.24464756285243544  1.0000
  Br  Br4       1.0  0.24464767087184583  0.755352311414418  0.7553523295271295  1.0000
  Br  Br5       1.0  0.2446476627897543  0.7553523396166769  0.24464766404266397  1.0000
  Br  Br6       1.0  0.7553522729591373  0.24464770549671605  0.7553523175310415  1.0000
