data_image0
_chemical_formula_structural       K2ZrI6
_chemical_formula_sum              "K2 Zr1 I6"
_cell_length_a       8.313696185872427
_cell_length_b       8.313696146961542
_cell_length_c       8.31369590002379
_cell_angle_alpha    60.00000061084786
_cell_angle_beta     60.00000302356773
_cell_angle_gamma    59.999996577006044

_space_group_name_H-M_alt    "P 1"
_space_group_IT_number       1

loop_
  _space_group_symop_operation_xyz
  'x, y, z'

loop_
  _atom_site_type_symbol
  _atom_site_label
  _atom_site_symmetry_multiplicity
  _atom_site_fract_x
  _atom_site_fract_y
  _atom_site_fract_z
  _atom_site_occupancy
  K   K1        1.0  0.2499999985100473  0.25000005218057914  0.25000000157137947  1.0000
  K   K2        1.0  0.7499999992372272  0.7499999620839156  0.7499999966457428  1.0000
  Zr  Zr1       1.0  0.9999999619938155  2.6516981067455125e-08  0.9999997014274803  1.0000
  I   I1        1.0  0.24543712271052465  0.24543703498808062  0.7545628950890176  1.0000
  I   I2        1.0  0.7545628024208975  0.7545629512862772  0.24543707885536112  1.0000
  I   I3        1.0  0.7545628954282836  0.24543705956273593  0.2454371263170172  1.0000
  I   I4        1.0  0.24543695074196878  0.7545631344279338  0.7545630009628279  1.0000
  I   I5        1.0  0.24543708500788333  0.7545629442710232  0.2454370997306821  1.0000
  I   I6        1.0  0.7545631765247806  0.24543683281383952  0.7545631053022739  1.0000
