data_image0
_chemical_formula_structural       K2ZrCl6
_chemical_formula_sum              "K2 Zr1 Cl6"
_cell_length_a       7.2206223783465076
_cell_length_b       7.220622537343666
_cell_length_c       7.220622744221787
_cell_angle_alpha    59.99999814411478
_cell_angle_beta     59.999998040480385
_cell_angle_gamma    60.000000106721025

_space_group_name_H-M_alt    "P 1"
_space_group_IT_number       1

loop_
  _space_group_symop_operation_xyz
  'x, y, z'

loop_
  _atom_site_type_symbol
  _atom_site_label
  _atom_site_symmetry_multiplicity
  _atom_site_fract_x
  _atom_site_fract_y
  _atom_site_fract_z
  _atom_site_occupancy
  K   K1        1.0  0.2500000132276986  0.24999997519381226  0.25000002401962285  1.0000
  K   K2        1.0  0.7499999931768624  0.7499999883399598  0.7500000403890477  1.0000
  Zr  Zr1       1.0  0.9999999988663636  1.7131380740424204e-07  0.9999998581281073  1.0000
  Cl  Cl1       1.0  0.24321539812360524  0.24321544168398476  0.7567845939405657  1.0000
  Cl  Cl2       1.0  0.7567845147225919  0.756784452306558  0.24321552293553791  1.0000
  Cl  Cl3       1.0  0.7567845027470529  0.24321554823551836  0.2432155303332344  1.0000
  Cl  Cl4       1.0  0.2432155441855171  0.756784442437075  0.7567845030118647  1.0000
  Cl  Cl5       1.0  0.24321552712765532  0.7567844692245083  0.2432154818226199  1.0000
  Cl  Cl6       1.0  0.7567845112603137  0.24321549430926484  0.7567844738045656  1.0000
