data_image0
_chemical_formula_structural       K2ZrF6
_chemical_formula_sum              "K2 Zr1 F6"
_cell_length_a       6.148429336409104
_cell_length_b       6.148429547516699
_cell_length_c       6.148429253139585
_cell_angle_alpha    59.999999845450205
_cell_angle_beta     59.999999959821636
_cell_angle_gamma    60.000000628501375

_space_group_name_H-M_alt    "P 1"
_space_group_IT_number       1

loop_
  _space_group_symop_operation_xyz
  'x, y, z'

loop_
  _atom_site_type_symbol
  _atom_site_label
  _atom_site_symmetry_multiplicity
  _atom_site_fract_x
  _atom_site_fract_y
  _atom_site_fract_z
  _atom_site_occupancy
  K   K1        1.0  0.2500000112890196  0.25000000744598067  0.24999998861006437  1.0000
  K   K2        1.0  0.7499999745476411  0.7500000143700873  0.749999983209513  1.0000
  Zr  Zr1       1.0  1.5024331900322366e-08  1.4082692638766907e-16  0.9999999859821073  1.0000
  F   F1        1.0  0.23386628647184693  0.2338663352342052  0.7661336912067842  1.0000
  F   F2        1.0  0.76613369118866  0.7661336885738264  0.2338663015956366  1.0000
  F   F3        1.0  0.7661336849895949  0.23386628508516102  0.23386633560476305  1.0000
  F   F4        1.0  0.23386630619806004  0.7661336530684292  0.7661337388013919  1.0000
  F   F5        1.0  0.23386632152443426  0.7661337163586491  0.23386628691305955  1.0000
  F   F6        1.0  0.7661336982308956  0.23386629948152698  0.766133714848784  1.0000
