data_image0
_chemical_formula_structural       Li2CrI6
_chemical_formula_sum              "Li2 Cr1 I6"
_cell_length_a       7.756340625404215
_cell_length_b       7.756340420044071
_cell_length_c       7.756340392042958
_cell_angle_alpha    60.00000010674928
_cell_angle_beta     59.99999967013744
_cell_angle_gamma    59.99999925184536

_space_group_name_H-M_alt    "P 1"
_space_group_IT_number       1

loop_
  _space_group_symop_operation_xyz
  'x, y, z'

loop_
  _atom_site_type_symbol
  _atom_site_label
  _atom_site_symmetry_multiplicity
  _atom_site_fract_x
  _atom_site_fract_y
  _atom_site_fract_z
  _atom_site_occupancy
  Li  Li1       1.0  0.2500000160509435  0.24999997568373641  0.2500000162999613  1.0000
  Li  Li2       1.0  0.7499999903920682  0.7500000154765609  0.7499999858646812  1.0000
  Cr  Cr1       1.0  0.9999999761650133  2.684341081226233e-08  7.585185684011416e-08  1.0000
  I   I1        1.0  0.24340626355794617  0.24340632388005953  0.7565937190279015  1.0000
  I   I2        1.0  0.7565936858312553  0.7565937446524209  0.24340629360584015  1.0000
  I   I3        1.0  0.7565937555163573  0.24340622135803872  0.24340622371989704  1.0000
  I   I4        1.0  0.24340634461276278  0.7565936450593508  0.7565936534429528  1.0000
  I   I5        1.0  0.24340629637089184  0.756593738883872  0.24340631178621916  1.0000
  I   I6        1.0  0.756593669409704  0.24340630280519798  0.7565937099413338  1.0000
