data_image0
_chemical_formula_structural       Li2CF6
_chemical_formula_sum              "Li2 C1 F6"
_cell_length_a       4.88361956765448
_cell_length_b       4.883618481296661
_cell_length_c       4.883619565958543
_cell_angle_alpha    60.000004167291564
_cell_angle_beta     60.00000613824047
_cell_angle_gamma    60.00000006026731

_space_group_name_H-M_alt    "P 1"
_space_group_IT_number       1

loop_
  _space_group_symop_operation_xyz
  'x, y, z'

loop_
  _atom_site_type_symbol
  _atom_site_label
  _atom_site_symmetry_multiplicity
  _atom_site_fract_x
  _atom_site_fract_y
  _atom_site_fract_z
  _atom_site_occupancy
  Li  Li1       1.0  0.2499998884356318  0.25000016026514243  0.24999993874976065  1.0000
  Li  Li2       1.0  0.7500000846810743  0.7499999390969188  0.74999991836465  1.0000
  C   C1        1.0  0.999999888342776  1.9310543027728418e-07  0.9999994145979367  1.0000
  F   F1        1.0  0.22702386021648255  0.22702388062795753  0.7729761750064127  1.0000
  F   F2        1.0  0.7729761997945134  0.7729757949051914  0.2270240266741693  1.0000
  F   F3        1.0  0.7729761005701771  0.22702406338577752  0.227024096157775  1.0000
  F   F4        1.0  0.22702366401705196  0.7729763494592441  0.7729759357703434  1.0000
  F   F5        1.0  0.22702386239384034  0.7729760149708965  0.22702415315677357  1.0000
  F   F6        1.0  0.77297641538712  0.2270234825039523  0.7729760921454789  1.0000
