data_image0
_chemical_formula_structural       Li2CoCl6
_chemical_formula_sum              "Li2 Co1 Cl6"
_cell_length_a       6.579046225622193
_cell_length_b       6.579046083581896
_cell_length_c       6.5790461098691075
_cell_angle_alpha    60.00000201002244
_cell_angle_beta     60.000001614360805
_cell_angle_gamma    60.00000273218216

_space_group_name_H-M_alt    "P 1"
_space_group_IT_number       1

loop_
  _space_group_symop_operation_xyz
  'x, y, z'

loop_
  _atom_site_type_symbol
  _atom_site_label
  _atom_site_symmetry_multiplicity
  _atom_site_fract_x
  _atom_site_fract_y
  _atom_site_fract_z
  _atom_site_occupancy
  Li  Li1       1.0  0.2500000306840698  0.24999992380025202  0.25000000064611266  1.0000
  Li  Li2       1.0  0.749999994471175  0.7499999798981886  0.7500000027192975  1.0000
  Co  Co1       1.0  9.122962434132265e-08  6.329386378221627e-08  0.999999836099558  1.0000
  Cl  Cl1       1.0  0.24044393792480315  0.24044380205770988  0.7595561494770708  1.0000
  Cl  Cl2       1.0  0.7595559549577673  0.7595561351492457  0.24044397470934636  1.0000
  Cl  Cl3       1.0  0.7595561141545186  0.24044390983627253  0.24044385984347452  1.0000
  Cl  Cl4       1.0  0.24044383412518325  0.7595562824077237  0.7595561349654731  1.0000
  Cl  Cl5       1.0  0.24044387679029983  0.7595560223741334  0.240443934210679  1.0000
  Cl  Cl6       1.0  0.7595561726172056  0.24044389807856628  0.7595560744910841  1.0000
