data_image0
_chemical_formula_structural       Li2CrCl6
_chemical_formula_sum              "Li2 Cr1 Cl6"
_cell_length_a       6.657409025285651
_cell_length_b       6.657408777588225
_cell_length_c       6.65740895729666
_cell_angle_alpha    59.99999946426055
_cell_angle_beta     60.00000115700153
_cell_angle_gamma    60.000000033383834

_space_group_name_H-M_alt    "P 1"
_space_group_IT_number       1

loop_
  _space_group_symop_operation_xyz
  'x, y, z'

loop_
  _atom_site_type_symbol
  _atom_site_label
  _atom_site_symmetry_multiplicity
  _atom_site_fract_x
  _atom_site_fract_y
  _atom_site_fract_z
  _atom_site_occupancy
  Li  Li1       1.0  0.24999999358480185  0.2499999908743617  0.2499999711418376  1.0000
  Li  Li2       1.0  0.7500000683520787  0.7500000480496398  0.7499999070176938  1.0000
  Cr  Cr1       1.0  0.9999999794840744  1.4717376244441985e-08  4.645976517191899e-08  1.0000
  Cl  Cl1       1.0  0.24437079492672395  0.2443708965493607  0.7556291793718846  1.0000
  Cl  Cl2       1.0  0.755629224225794  0.755629203083818  0.24437078746082166  1.0000
  Cl  Cl3       1.0  0.7556291187921975  0.2443708250739571  0.2443708331838245  1.0000
  Cl  Cl4       1.0  0.24437081104624017  0.7556291678582421  0.7556291745771472  1.0000
  Cl  Cl5       1.0  0.24437082079516864  0.7556291103407026  0.24437089634535358  1.0000
  Cl  Cl6       1.0  0.7556292107481933  0.24437073357806174  0.7556291801324501  1.0000
