data_image0
_chemical_formula_structural       Li2CoBr6
_chemical_formula_sum              "Li2 Co1 Br6"
_cell_length_a       6.9935502945501815
_cell_length_b       6.993550690217527
_cell_length_c       6.99355047495874
_cell_angle_alpha    60.00000144099445
_cell_angle_beta     60.000000139479745
_cell_angle_gamma    60.00000168912484

_space_group_name_H-M_alt    "P 1"
_space_group_IT_number       1

loop_
  _space_group_symop_operation_xyz
  'x, y, z'

loop_
  _atom_site_type_symbol
  _atom_site_label
  _atom_site_symmetry_multiplicity
  _atom_site_fract_x
  _atom_site_fract_y
  _atom_site_fract_z
  _atom_site_occupancy
  Li  Li1       1.0  0.25000005565155264  0.24999994450922078  0.2500000029546913  1.0000
  Li  Li2       1.0  0.74999997752519  0.7500000699462729  0.7499999281739472  1.0000
  Co  Co1       1.0  1.1674992784812395e-08  0.9999999649750206  0.9999999773576603  1.0000
  Br  Br1       1.0  0.2461851192085545  0.24618505404888646  0.7538148895580767  1.0000
  Br  Br2       1.0  0.7538149360161536  0.7538149586553582  0.24618506287975897  1.0000
  Br  Br3       1.0  0.7538149377566451  0.24618501531242365  0.24618510695671322  1.0000
  Br  Br4       1.0  0.24618506213212862  0.753814955361846  0.7538149499297426  1.0000
  Br  Br5       1.0  0.2461850200216066  0.7538149723456354  0.2461850822610731  1.0000
  Br  Br6       1.0  0.7538148883387535  0.24618506487609482  0.7538149813963033  1.0000
