data_image0
_chemical_formula_structural       Li2CCl6
_chemical_formula_sum              "Li2 C1 Cl6"
_cell_length_a       6.509682395086284
_cell_length_b       6.509682100972747
_cell_length_c       6.509682094978336
_cell_angle_alpha    60.000002041581915
_cell_angle_beta     60.00000064606337
_cell_angle_gamma    60.00000005640589

_space_group_name_H-M_alt    "P 1"
_space_group_IT_number       1

loop_
  _space_group_symop_operation_xyz
  'x, y, z'

loop_
  _atom_site_type_symbol
  _atom_site_label
  _atom_site_symmetry_multiplicity
  _atom_site_fract_x
  _atom_site_fract_y
  _atom_site_fract_z
  _atom_site_occupancy
  Li  Li1       1.0  0.24999999121435545  0.24999996602041516  0.25000001315416137  1.0000
  Li  Li2       1.0  0.7500000009112612  0.7500000184721488  0.7499999548697234  1.0000
  C   C1        1.0  3.4068422779187086e-07  0.999999808095117  0.999999782746203  1.0000
  Cl  Cl1       1.0  0.2369001690034941  0.2369001288356498  0.7630998600235037  1.0000
  Cl  Cl2       1.0  0.7630996997263807  0.763099784162941  0.23690022848783804  1.0000
  Cl  Cl3       1.0  0.7630998121276007  0.23690019528298067  0.23690022897136956  1.0000
  Cl  Cl4       1.0  0.23690003955871672  0.7630999604188433  0.7630999387318039  1.0000
  Cl  Cl5       1.0  0.2369001646555216  0.7630998864690742  0.2369001940287741  1.0000
  Cl  Cl6       1.0  0.763099759972622  0.23690025794422367  0.7630997999836293  1.0000
