data_image0
_chemical_formula_structural       Li2CI6
_chemical_formula_sum              "Li2 C1 I6"
_cell_length_a       7.600091724336359
_cell_length_b       7.600091988023294
_cell_length_c       7.600091322340037
_cell_angle_alpha    60.00000155246271
_cell_angle_beta     60.000001005023826
_cell_angle_gamma    60.00000070087284

_space_group_name_H-M_alt    "P 1"
_space_group_IT_number       1

loop_
  _space_group_symop_operation_xyz
  'x, y, z'

loop_
  _atom_site_type_symbol
  _atom_site_label
  _atom_site_symmetry_multiplicity
  _atom_site_fract_x
  _atom_site_fract_y
  _atom_site_fract_z
  _atom_site_occupancy
  Li  Li1       1.0  0.2499999410287101  0.25000002562956825  0.2500000454631509  1.0000
  Li  Li2       1.0  0.7500000689876438  0.7500000092062549  0.7499999407022533  1.0000
  C   C1        1.0  5.2454869159020454e-08  1.1280407862201052e-08  0.9999999510273034  1.0000
  I   I1        1.0  0.24973899133795208  0.24973898271392928  0.750261032406108  1.0000
  I   I2        1.0  0.7502609310183952  0.7502610279495918  0.24973898467575192  1.0000
  I   I3        1.0  0.750261018928573  0.24973896346491992  0.24973905099968605  1.0000
  I   I4        1.0  0.24973894481818462  0.7502610278607578  0.7502610011079687  1.0000
  I   I5        1.0  0.24973903990005417  0.7502610228032108  0.24973897699559233  1.0000
  I   I6        1.0  0.7502610337910398  0.24973893951570272  0.7502609859596502  1.0000
