data_image0
_chemical_formula_structural       Li2FeCl6
_chemical_formula_sum              "Li2 Fe1 Cl6"
_cell_length_a       6.560492402481473
_cell_length_b       6.560492710788448
_cell_length_c       6.56049283012353
_cell_angle_alpha    59.99999855306379
_cell_angle_beta     59.999999435818154
_cell_angle_gamma    59.999999226226244

_space_group_name_H-M_alt    "P 1"
_space_group_IT_number       1

loop_
  _space_group_symop_operation_xyz
  'x, y, z'

loop_
  _atom_site_type_symbol
  _atom_site_label
  _atom_site_symmetry_multiplicity
  _atom_site_fract_x
  _atom_site_fract_y
  _atom_site_fract_z
  _atom_site_occupancy
  Li  Li1       1.0  0.2500000988824837  0.2500000405214457  0.2500000970836819  1.0000
  Li  Li2       1.0  0.7499999191205529  0.7500000132871087  0.7500000616276289  1.0000
  Fe  Fe1       1.0  6.159973741084177e-08  1.848180413436624e-07  8.71411609697216e-08  1.0000
  Cl  Cl1       1.0  0.2400622497128113  0.2400622489067233  0.7599377474536253  1.0000
  Cl  Cl2       1.0  0.7599376314340215  0.7599375976816044  0.24006227844075406  1.0000
  Cl  Cl3       1.0  0.7599378429884198  0.24006216649664164  0.2400622033334186  1.0000
  Cl  Cl4       1.0  0.24006246635871087  0.7599375307437681  0.7599376435036079  1.0000
  Cl  Cl5       1.0  0.24006221208224793  0.759937772208772  0.2400621728202466  1.0000
  Cl  Cl6       1.0  0.7599375089792736  0.24006247015153415  0.7599376407256996  1.0000
