data_image0
_chemical_formula_structural       Li2GeBr6
_chemical_formula_sum              "Li2 Ge1 Br6"
_cell_length_a       7.108822517000283
_cell_length_b       7.108822506065423
_cell_length_c       7.108822703244502
_cell_angle_alpha    59.99999934822315
_cell_angle_beta     59.99999946731542
_cell_angle_gamma    60.000000831521994

_space_group_name_H-M_alt    "P 1"
_space_group_IT_number       1

loop_
  _space_group_symop_operation_xyz
  'x, y, z'

loop_
  _atom_site_type_symbol
  _atom_site_label
  _atom_site_symmetry_multiplicity
  _atom_site_fract_x
  _atom_site_fract_y
  _atom_site_fract_z
  _atom_site_occupancy
  Li  Li1       1.0  0.25000000614620793  0.24999999334932968  0.24999998990353248  1.0000
  Li  Li2       1.0  0.750000009725833  0.7500000110593242  0.7500000218629461  1.0000
  Ge  Ge1       1.0  8.335570049184379e-09  0.9999999603744053  7.331982244654682e-08  1.0000
  Br  Br1       1.0  0.24420189314681956  0.24420180480663312  0.7557981727742542  1.0000
  Br  Br2       1.0  0.7557981379521987  0.7557981393022026  0.24420183902140183  1.0000
  Br  Br3       1.0  0.7557980810461217  0.2442019133819936  0.2442018654422138  1.0000
  Br  Br4       1.0  0.24420188406095622  0.7557981409893662  0.7557981073377182  1.0000
  Br  Br5       1.0  0.24420187622217535  0.7557981642136086  0.24420180841379313  1.0000
  Br  Br6       1.0  0.7557980902305336  0.24420187637493534  0.7557981269769479  1.0000
