data_image0
_chemical_formula_structural       Li2GeF6
_chemical_formula_sum              "Li2 Ge1 F6"
_cell_length_a       5.475268110109777
_cell_length_b       5.475268315198983
_cell_length_c       5.475268499695437
_cell_angle_alpha    59.99999853435165
_cell_angle_beta     59.99999892143338
_cell_angle_gamma    59.99999881473412

_space_group_name_H-M_alt    "P 1"
_space_group_IT_number       1

loop_
  _space_group_symop_operation_xyz
  'x, y, z'

loop_
  _atom_site_type_symbol
  _atom_site_label
  _atom_site_symmetry_multiplicity
  _atom_site_fract_x
  _atom_site_fract_y
  _atom_site_fract_z
  _atom_site_occupancy
  Li  Li1       1.0  0.25000001555564266  0.24999997760044126  0.2500000472029969  1.0000
  Li  Li2       1.0  0.7499999901714449  0.7500000200391517  0.750000014827756  1.0000
  Ge  Ge1       1.0  5.21935806870887e-09  0.9999999843419282  5.4532007148400265e-08  1.0000
  F   F1        1.0  0.23483448985768982  0.2348345138324749  0.7651654724548544  1.0000
  F   F2        1.0  0.7651655405370187  0.7651655173601292  0.23483442713878747  1.0000
  F   F3        1.0  0.7651654215609028  0.2348346271183481  0.23483460289152674  1.0000
  F   F4        1.0  0.23483456691088622  0.7651653906530523  0.7651653335061486  1.0000
  F   F5        1.0  0.23483456697695115  0.7651653953185878  0.2348346103434562  1.0000
  F   F6        1.0  0.7651654261184504  0.2348345642942616  0.7651653583008721  1.0000
