data_image0
_chemical_formula_structural       Li2GeI6
_chemical_formula_sum              "Li2 Ge1 I6"
_cell_length_a       7.870313998761975
_cell_length_b       7.870313724943115
_cell_length_c       7.870313664382825
_cell_angle_alpha    60.00000154287065
_cell_angle_beta     60.000000413513234
_cell_angle_gamma    60.00000064230984

_space_group_name_H-M_alt    "P 1"
_space_group_IT_number       1

loop_
  _space_group_symop_operation_xyz
  'x, y, z'

loop_
  _atom_site_type_symbol
  _atom_site_label
  _atom_site_symmetry_multiplicity
  _atom_site_fract_x
  _atom_site_fract_y
  _atom_site_fract_z
  _atom_site_occupancy
  Li  Li1       1.0  0.24999995305657335  0.25000002201414584  0.2500000305345992  1.0000
  Li  Li2       1.0  0.7500000568523308  0.7499999835660844  0.7499999844473683  1.0000
  Ge  Ge1       1.0  3.936157997564295e-08  0.9999999875507389  0.9999999649436845  1.0000
  I   I1        1.0  0.25943814732978826  0.25943807418449955  0.7405618892671527  1.0000
  I   I2        1.0  0.7405618537177009  0.740561883154845  0.2594381415599909  1.0000
  I   I3        1.0  0.740561904258283  0.25943812473721267  0.2594381274961641  1.0000
  I   I4        1.0  0.2594381000489777  0.7405618668375994  0.7405619061835157  1.0000
  I   I5        1.0  0.2594380835104629  0.7405619264784593  0.2594381147962992  1.0000
  I   I6        1.0  0.7405618622426092  0.2594381351234433  0.7405618369110873  1.0000
