data_image0
_chemical_formula_structural       Li2HfBr6
_chemical_formula_sum              "Li2 Hf1 Br6"
_cell_length_a       7.394183176452004
_cell_length_b       7.39418318207218
_cell_length_c       7.394183135285901
_cell_angle_alpha    60.00000070226866
_cell_angle_beta     60.00000078326647
_cell_angle_gamma    59.99999894325111

_space_group_name_H-M_alt    "P 1"
_space_group_IT_number       1

loop_
  _space_group_symop_operation_xyz
  'x, y, z'

loop_
  _atom_site_type_symbol
  _atom_site_label
  _atom_site_symmetry_multiplicity
  _atom_site_fract_x
  _atom_site_fract_y
  _atom_site_fract_z
  _atom_site_occupancy
  Li  Li1       1.0  0.24999998581343796  0.24999998342717672  0.25000002858108483  1.0000
  Li  Li2       1.0  0.7499999761636644  0.7499999784396946  0.7500000717693982  1.0000
  Hf  Hf1       1.0  3.7376110321528746e-09  4.9690879213079935e-08  9.094581083978414e-08  1.0000
  Br  Br1       1.0  0.2493376718645259  0.2493376603454435  0.7506623325331532  1.0000
  Br  Br2       1.0  0.7506622706476467  0.7506622849578015  0.2493377168584716  1.0000
  Br  Br3       1.0  0.750662427779234  0.24933761260123938  0.2493375794640966  1.0000
  Br  Br4       1.0  0.24933767365690862  0.7506623244201894  0.7506622701843241  1.0000
  Br  Br5       1.0  0.24933761526483036  0.7506624436680314  0.24933759007197512  1.0000
  Br  Br6       1.0  0.750662380434824  0.249337660646025  0.7506623194101432  1.0000
