data_image0
_chemical_formula_structural       Li2HfCl6
_chemical_formula_sum              "Li2 Hf1 Cl6"
_cell_length_a       6.9101150454204
_cell_length_b       6.910115116994526
_cell_length_c       6.910115162678052
_cell_angle_alpha    59.99999847241869
_cell_angle_beta     59.99999882285789
_cell_angle_gamma    59.9999991239537

_space_group_name_H-M_alt    "P 1"
_space_group_IT_number       1

loop_
  _space_group_symop_operation_xyz
  'x, y, z'

loop_
  _atom_site_type_symbol
  _atom_site_label
  _atom_site_symmetry_multiplicity
  _atom_site_fract_x
  _atom_site_fract_y
  _atom_site_fract_z
  _atom_site_occupancy
  Li  Li1       1.0  0.25000000005832385  0.24999998627678435  0.2500000015550364  1.0000
  Li  Li2       1.0  0.7500000073833054  0.749999902113734  0.7500000409964834  1.0000
  Hf  Hf1       1.0  1.7550027687708985e-09  2.4813519800171983e-08  5.907343268682157e-08  1.0000
  Cl  Cl1       1.0  0.24909779661580653  0.24909787561496052  0.7509021613208596  1.0000
  Cl  Cl2       1.0  0.7509021880540081  0.7509021262087958  0.24909781129833125  1.0000
  Cl  Cl3       1.0  0.7509021246075854  0.24909787825688054  0.2490979089444453  1.0000
  Cl  Cl4       1.0  0.2490979362548109  0.750902100525749  0.7509020544648647  1.0000
  Cl  Cl5       1.0  0.24909782281769408  0.7509021794719255  0.24909789936769244  1.0000
  Cl  Cl6       1.0  0.7509021067399488  0.2490979375574622  0.7509020837250765  1.0000
