data_image0
_chemical_formula_structural       Li2IrF6
_chemical_formula_sum              "Li2 Ir1 F6"
_cell_length_a       5.619031505049094
_cell_length_b       5.619031278000148
_cell_length_c       5.619031419217478
_cell_angle_alpha    60.000000430911605
_cell_angle_beta     60.00000047062759
_cell_angle_gamma    60.000000235426675

_space_group_name_H-M_alt    "P 1"
_space_group_IT_number       1

loop_
  _space_group_symop_operation_xyz
  'x, y, z'

loop_
  _atom_site_type_symbol
  _atom_site_label
  _atom_site_symmetry_multiplicity
  _atom_site_fract_x
  _atom_site_fract_y
  _atom_site_fract_z
  _atom_site_occupancy
  Li  Li1       1.0  0.24999999584345378  0.2499999526210624  0.24999995341079026  1.0000
  Li  Li2       1.0  0.7499999962452366  0.7500000474916136  0.7500000351293084  1.0000
  Ir  Ir1       1.0  0.9999999993981099  0.9999999956407261  1.4938245017934202e-08  1.0000
  F   F1        1.0  0.24561090686661882  0.24561092496946157  0.7543890864998983  1.0000
  F   F2        1.0  0.7543890657941577  0.7543890162930147  0.2456109749929137  1.0000
  F   F3        1.0  0.7543890420804886  0.2456109509690786  0.24561092633393353  1.0000
  F   F4        1.0  0.24561096947889158  0.7543890338861379  0.7543890405232222  1.0000
  F   F5        1.0  0.24561093299682188  0.7543891377006547  0.24561086936117296  1.0000
  F   F6        1.0  0.754389060003562  0.2456109583160509  0.7543890707710651  1.0000
