data_image0
_chemical_formula_structural       Li2IrBr6
_chemical_formula_sum              "Li2 Ir1 Br6"
_cell_length_a       7.163915202743322
_cell_length_b       7.163915178780258
_cell_length_c       7.163915248279766
_cell_angle_alpha    59.999999217931524
_cell_angle_beta     59.999999759485775
_cell_angle_gamma    59.99999984692571

_space_group_name_H-M_alt    "P 1"
_space_group_IT_number       1

loop_
  _space_group_symop_operation_xyz
  'x, y, z'

loop_
  _atom_site_type_symbol
  _atom_site_label
  _atom_site_symmetry_multiplicity
  _atom_site_fract_x
  _atom_site_fract_y
  _atom_site_fract_z
  _atom_site_occupancy
  Li  Li1       1.0  0.2500000066333525  0.2499999964918423  0.2499999857640082  1.0000
  Li  Li2       1.0  0.7500000059466899  0.7500000168291697  0.7500000343449714  1.0000
  Ir  Ir1       1.0  0.9999999796970908  2.222483458351137e-08  1.12105701466361e-07  1.0000
  Br  Br1       1.0  0.24629804908863068  0.24629803217872548  0.7537019754423753  1.0000
  Br  Br2       1.0  0.7537019632148655  0.753701967465465  0.24629803070501705  1.0000
  Br  Br3       1.0  0.753701959785005  0.2462980353935808  0.24629802483637775  1.0000
  Br  Br4       1.0  0.246298113150673  0.7537018838992829  0.7537019018339637  1.0000
  Br  Br5       1.0  0.2462980538112093  0.7537019463299491  0.24629803605743725  1.0000
  Br  Br6       1.0  0.7537018710456568  0.24629810289271997  0.7537019024791765  1.0000
