data_image0
_chemical_formula_structural       Li2IrI6
_chemical_formula_sum              "Li2 Ir1 I6"
_cell_length_a       7.672480629757823
_cell_length_b       7.672480604502405
_cell_length_c       7.672480681847682
_cell_angle_alpha    59.99999943855369
_cell_angle_beta     59.999999700806285
_cell_angle_gamma    59.99999925116225

_space_group_name_H-M_alt    "P 1"
_space_group_IT_number       1

loop_
  _space_group_symop_operation_xyz
  'x, y, z'

loop_
  _atom_site_type_symbol
  _atom_site_label
  _atom_site_symmetry_multiplicity
  _atom_site_fract_x
  _atom_site_fract_y
  _atom_site_fract_z
  _atom_site_occupancy
  Li  Li1       1.0  0.24999999481116403  0.2499999973344728  0.24999999150484375  1.0000
  Li  Li2       1.0  0.7500000133778073  0.7499999999848324  0.7499999990625277  1.0000
  Ir  Ir1       1.0  0.9999999937974546  9.577696719250105e-09  4.001992584923041e-08  1.0000
  I   I1        1.0  0.24851007730005814  0.24851006573255185  0.7514899498316996  1.0000
  I   I2        1.0  0.7514899009717022  0.7514899220090566  0.24851009306711117  1.0000
  I   I3        1.0  0.7514899415781092  0.2485100690260591  0.24851009483424213  1.0000
  I   I4        1.0  0.24851010540675328  0.7514898931750245  0.7514898626136683  1.0000
  I   I5        1.0  0.24851009103232863  0.7514899374327388  0.24851009965776663  1.0000
  I   I6        1.0  0.7514898861439162  0.24851010777505045  0.7514898681347724  1.0000
