data_image0
_chemical_formula_structural       Li2MoBr6
_chemical_formula_sum              "Li2 Mo1 Br6"
_cell_length_a       7.255179264317946
_cell_length_b       7.25517922418904
_cell_length_c       7.255179479170068
_cell_angle_alpha    59.99999920931778
_cell_angle_beta     59.99999880446196
_cell_angle_gamma    60.00000164606442

_space_group_name_H-M_alt    "P 1"
_space_group_IT_number       1

loop_
  _space_group_symop_operation_xyz
  'x, y, z'

loop_
  _atom_site_type_symbol
  _atom_site_label
  _atom_site_symmetry_multiplicity
  _atom_site_fract_x
  _atom_site_fract_y
  _atom_site_fract_z
  _atom_site_occupancy
  Li  Li1       1.0  0.25000006419677956  0.249999995852693  0.24999995103058054  1.0000
  Li  Li2       1.0  0.7499999759459847  0.7499999976866577  0.750000062480705  1.0000
  Mo  Mo1       1.0  0.9999999378328728  5.064290143332491e-09  0.9999999858233234  1.0000
  Br  Br1       1.0  0.24737684207277816  0.24737686047581187  0.7526231477533594  1.0000
  Br  Br2       1.0  0.7526231518018296  0.752623166825484  0.24737681412135465  1.0000
  Br  Br3       1.0  0.7526230409721761  0.24737695527900885  0.2473769112536257  1.0000
  Br  Br4       1.0  0.24737691414245017  0.7526230737103834  0.7526230622654027  1.0000
  Br  Br5       1.0  0.24737702248335272  0.7526230002679881  0.24737697467767145  1.0000
  Br  Br6       1.0  0.7526230542017235  0.2473769409403465  0.7526230894560614  1.0000
