data_image0
_chemical_formula_structural       Li2MnF6
_chemical_formula_sum              "Li2 Mn1 F6"
_cell_length_a       5.3935187506275115
_cell_length_b       5.393518642874512
_cell_length_c       5.393518733225743
_cell_angle_alpha    60.0000002255386
_cell_angle_beta     60.00000094527241
_cell_angle_gamma    60.00000071780863

_space_group_name_H-M_alt    "P 1"
_space_group_IT_number       1

loop_
  _space_group_symop_operation_xyz
  'x, y, z'

loop_
  _atom_site_type_symbol
  _atom_site_label
  _atom_site_symmetry_multiplicity
  _atom_site_fract_x
  _atom_site_fract_y
  _atom_site_fract_z
  _atom_site_occupancy
  Li  Li1       1.0  0.24999993848809618  0.2499999358356383  0.2500000850643406  1.0000
  Li  Li2       1.0  0.7499999326054033  0.7499999891686387  0.7499999018431147  1.0000
  Mn  Mn1       1.0  4.2365452727220317e-08  0.99999991143991  3.0513627129174657e-08  1.0000
  F   F1        1.0  0.24078760984323003  0.24078756373809215  0.7592124489294222  1.0000
  F   F2        1.0  0.7592123105763642  0.7592124316601043  0.24078765425535892  1.0000
  F   F3        1.0  0.7592123281568568  0.24078761906798513  0.24078763856168034  1.0000
  F   F4        1.0  0.24078770451727083  0.7592125148472769  0.7592123169883768  1.0000
  F   F5        1.0  0.2407877335566962  0.7592123824738061  0.24078755949047453  1.0000
  F   F6        1.0  0.759212413019504  0.24078765379828052  0.759212428719832  1.0000
