data_image0
_chemical_formula_structural       Li2MnBr6
_chemical_formula_sum              "Li2 Mn1 Br6"
_cell_length_a       7.162017681503726
_cell_length_b       7.162017616031113
_cell_length_c       7.162017577176924
_cell_angle_alpha    59.999999137963
_cell_angle_beta     59.99999889437018
_cell_angle_gamma    59.99999949197745

_space_group_name_H-M_alt    "P 1"
_space_group_IT_number       1

loop_
  _space_group_symop_operation_xyz
  'x, y, z'

loop_
  _atom_site_type_symbol
  _atom_site_label
  _atom_site_symmetry_multiplicity
  _atom_site_fract_x
  _atom_site_fract_y
  _atom_site_fract_z
  _atom_site_occupancy
  Li  Li1       1.0  0.24999997089186207  0.25000003861079106  0.2500000030449112  1.0000
  Li  Li2       1.0  0.7500000126215536  0.749999975607809  0.7500000027451946  1.0000
  Mn  Mn1       1.0  3.7766483678449496e-08  0.9999999640888307  5.7715035893060994e-08  1.0000
  Br  Br1       1.0  0.23074765805773004  0.23074754662791105  0.7692524032405119  1.0000
  Br  Br2       1.0  0.7692524498117719  0.7692524282594091  0.23074753350835198  1.0000
  Br  Br3       1.0  0.7692524042009178  0.2307475720002919  0.2307476600999758  1.0000
  Br  Br4       1.0  0.23074756204990038  0.769252445638419  0.7692524266128673  1.0000
  Br  Br5       1.0  0.23074756423161788  0.7692524214051254  0.23074753752638288  1.0000
  Br  Br6       1.0  0.7692523460624642  0.23074759965369784  0.7692523799791285  1.0000
