data_image0
_chemical_formula_structural       Li2MoF6
_chemical_formula_sum              "Li2 Mo1 F6"
_cell_length_a       5.688011563827353
_cell_length_b       5.688011278292789
_cell_length_c       5.68801130471543
_cell_angle_alpha    60.00000122263824
_cell_angle_beta     59.999999140416364
_cell_angle_gamma    59.999998700513274

_space_group_name_H-M_alt    "P 1"
_space_group_IT_number       1

loop_
  _space_group_symop_operation_xyz
  'x, y, z'

loop_
  _atom_site_type_symbol
  _atom_site_label
  _atom_site_symmetry_multiplicity
  _atom_site_fract_x
  _atom_site_fract_y
  _atom_site_fract_z
  _atom_site_occupancy
  Li  Li1       1.0  0.2499999565134396  0.250000051344476  0.2499999867533551  1.0000
  Li  Li2       1.0  0.7499998670599416  0.7500001066629393  0.7499999570561587  1.0000
  Mo  Mo1       1.0  7.89508074982489e-09  0.9999999763147566  3.4266336574877534e-08  1.0000
  F   F1        1.0  0.24697035683411236  0.24697034843340815  0.7530296605118058  1.0000
  F   F2        1.0  0.7530297183894668  0.753029529657486  0.24697036951229423  1.0000
  F   F3        1.0  0.7530296027290899  0.24697037129734561  0.24697038108087654  1.0000
  F   F4        1.0  0.24697046062017255  0.7530295972281174  0.7530296342762701  1.0000
  F   F5        1.0  0.24697039318404615  0.753029677394906  0.24697037173229835  1.0000
  F   F6        1.0  0.7530296130349876  0.24697037725871704  0.7530296062707963  1.0000
