data_image0
_chemical_formula_structural       Li2MoI6
_chemical_formula_sum              "Li2 Mo1 I6"
_cell_length_a       7.85728942363975
_cell_length_b       7.857289443463012
_cell_length_c       7.857289402134224
_cell_angle_alpha    59.999999955667974
_cell_angle_beta     59.999999923102976
_cell_angle_gamma    60.000000279084865

_space_group_name_H-M_alt    "P 1"
_space_group_IT_number       1

loop_
  _space_group_symop_operation_xyz
  'x, y, z'

loop_
  _atom_site_type_symbol
  _atom_site_label
  _atom_site_symmetry_multiplicity
  _atom_site_fract_x
  _atom_site_fract_y
  _atom_site_fract_z
  _atom_site_occupancy
  Li  Li1       1.0  0.24999998755401404  0.2500000367939093  0.2499999335078216  1.0000
  Li  Li2       1.0  0.7499999983652936  0.7499999591842272  0.7500000759028942  1.0000
  Mo  Mo1       1.0  2.6467941021705186e-08  0.9999999735014691  1.287998498021725e-09  1.0000
  I   I1        1.0  0.25015227882960306  0.2501522855212142  0.7498477346415169  1.0000
  I   I2        1.0  0.7498477570405193  0.7498477369554535  0.2501522658167072  1.0000
  I   I3        1.0  0.7498477331367572  0.2501522625844287  0.2501522757339606  1.0000
  I   I4        1.0  0.2501522718133887  0.7498477115713883  0.7498477363451994  1.0000
  I   I5        1.0  0.25015224570337513  0.749847748342947  0.2501522560159448  1.0000
  I   I6        1.0  0.7498476978346277  0.2501522866036175  0.7498477245563246  1.0000
