data_image0
_chemical_formula_structural       Li2NbCl6
_chemical_formula_sum              "Li2 Nb1 Cl6"
_cell_length_a       6.931365505362811
_cell_length_b       6.931365487334102
_cell_length_c       6.9313654838509535
_cell_angle_alpha    60.00000150323109
_cell_angle_beta     60.00000066403565
_cell_angle_gamma    60.00000146054221

_space_group_name_H-M_alt    "P 1"
_space_group_IT_number       1

loop_
  _space_group_symop_operation_xyz
  'x, y, z'

loop_
  _atom_site_type_symbol
  _atom_site_label
  _atom_site_symmetry_multiplicity
  _atom_site_fract_x
  _atom_site_fract_y
  _atom_site_fract_z
  _atom_site_occupancy
  Li  Li1       1.0  0.2500000219482476  0.24999998068411589  0.2499999921764043  1.0000
  Li  Li2       1.0  0.7499999236507495  0.750000118748389  0.7499999621636246  1.0000
  Nb  Nb1       1.0  0.9999999835083697  4.947489192164456e-08  0.9999999979355414  1.0000
  Cl  Cl1       1.0  0.24455579740494923  0.24455571260361822  0.7554442727514588  1.0000
  Cl  Cl2       1.0  0.7554441905520566  0.7554441747936371  0.24455582557859235  1.0000
  Cl  Cl3       1.0  0.7554442399048382  0.24455578323299443  0.2445557881914014  1.0000
  Cl  Cl4       1.0  0.2445558502094236  0.7554441925122822  0.7554441759326489  1.0000
  Cl  Cl5       1.0  0.24455584690053958  0.7554441637827202  0.24455577923573907  1.0000
  Cl  Cl6       1.0  0.7554441709907657  0.24455581372951576  0.7554441840483801  1.0000
