data_image0
_chemical_formula_structural       Li2NiBr6
_chemical_formula_sum              "Li2 Ni1 Br6"
_cell_length_a       6.928425712828107
_cell_length_b       6.92842579501673
_cell_length_c       6.9284257366911115
_cell_angle_alpha    59.999997032187466
_cell_angle_beta     59.99999774734881
_cell_angle_gamma    59.99999737561461

_space_group_name_H-M_alt    "P 1"
_space_group_IT_number       1

loop_
  _space_group_symop_operation_xyz
  'x, y, z'

loop_
  _atom_site_type_symbol
  _atom_site_label
  _atom_site_symmetry_multiplicity
  _atom_site_fract_x
  _atom_site_fract_y
  _atom_site_fract_z
  _atom_site_occupancy
  Li  Li1       1.0  0.24999988147651164  0.25000011609511746  0.2500000576718327  1.0000
  Li  Li2       1.0  0.750000049812515  0.7499998321139607  0.7500002933595293  1.0000
  Ni  Ni1       1.0  0.9999999592271992  0.9999999823229003  0.9999999541718267  1.0000
  Br  Br1       1.0  0.24688537749315748  0.24688529559448635  0.753114613473006  1.0000
  Br  Br2       1.0  0.7531146784712258  0.7531146985750667  0.2468852899647782  1.0000
  Br  Br3       1.0  0.7531146765275082  0.24688532032761223  0.2468852710921045  1.0000
  Br  Br4       1.0  0.2468853594028252  0.753114733944088  0.7531146325182404  1.0000
  Br  Br5       1.0  0.24688531036716976  0.7531147537856427  0.24688521877258954  1.0000
  Br  Br6       1.0  0.7531147060692911  0.24688527397040502  0.7531146804192617  1.0000
