data_image0
_chemical_formula_structural       Li2NbBr6
_chemical_formula_sum              "Li2 Nb1 Br6"
_cell_length_a       7.3729016253187964
_cell_length_b       7.372901587744514
_cell_length_c       7.372901625621118
_cell_angle_alpha    60.00000061740015
_cell_angle_beta     60.00000073665997
_cell_angle_gamma    60.000000800997285

_space_group_name_H-M_alt    "P 1"
_space_group_IT_number       1

loop_
  _space_group_symop_operation_xyz
  'x, y, z'

loop_
  _atom_site_type_symbol
  _atom_site_label
  _atom_site_symmetry_multiplicity
  _atom_site_fract_x
  _atom_site_fract_y
  _atom_site_fract_z
  _atom_site_occupancy
  Li  Li1       1.0  0.24999999381354648  0.2500000167737667  0.24999997143706745  1.0000
  Li  Li2       1.0  0.7500000159446468  0.7499999656029753  0.7500000777628082  1.0000
  Nb  Nb1       1.0  3.133912448418339e-08  0.9999999717605581  0.9999999930248863  1.0000
  Br  Br1       1.0  0.24534009710862956  0.2453400750098433  0.7546599309261106  1.0000
  Br  Br2       1.0  0.7546598866575799  0.7546599289617658  0.24534009741491525  1.0000
  Br  Br3       1.0  0.754659931139801  0.24534008935642931  0.2453400622005155  1.0000
  Br  Br4       1.0  0.24534009233365353  0.7546599129540361  0.7546599104968712  1.0000
  Br  Br5       1.0  0.245340067645546  0.7546599380679342  0.2453400630001526  1.0000
  Br  Br6       1.0  0.7546598698475457  0.24534011075455286  0.7546599023050422  1.0000
