data_image0
_chemical_formula_structural       Li2NbI6
_chemical_formula_sum              "Li2 Nb1 I6"
_cell_length_a       7.994521801809711
_cell_length_b       7.99452173926863
_cell_length_c       7.994521451084541
_cell_angle_alpha    60.00000092676709
_cell_angle_beta     60.00000099862922
_cell_angle_gamma    59.99999911132045

_space_group_name_H-M_alt    "P 1"
_space_group_IT_number       1

loop_
  _space_group_symop_operation_xyz
  'x, y, z'

loop_
  _atom_site_type_symbol
  _atom_site_label
  _atom_site_symmetry_multiplicity
  _atom_site_fract_x
  _atom_site_fract_y
  _atom_site_fract_z
  _atom_site_occupancy
  Li  Li1       1.0  0.25000004404806647  0.24999996301153926  0.24999996064670577  1.0000
  Li  Li2       1.0  0.7499999842331715  0.7500000207849137  0.7500000413741333  1.0000
  Nb  Nb1       1.0  9.090736238598199e-08  4.595938998367361e-09  0.9999999860214774  1.0000
  I   I1        1.0  0.24681761085464737  0.24681757849677013  0.7531824176082245  1.0000
  I   I2        1.0  0.7531823451508043  0.753182357808299  0.24681766305904906  1.0000
  I   I3        1.0  0.7531824118651926  0.24681759076816787  0.24681756018125542  1.0000
  I   I4        1.0  0.24681758062732342  0.7531824267318492  0.753182435377023  1.0000
  I   I5        1.0  0.24681755746189593  0.7531824641584375  0.2468175026196777  1.0000
  I   I6        1.0  0.7531823770657671  0.24681758857712396  0.7531824355061415  1.0000
