data_image0
_chemical_formula_structural       Li2OsF6
_chemical_formula_sum              "Li2 Os1 F6"
_cell_length_a       5.63632176221724
_cell_length_b       5.636321596185055
_cell_length_c       5.636321811426866
_cell_angle_alpha    60.000001279121435
_cell_angle_beta     59.99999979891711
_cell_angle_gamma    60.00000291851108

_space_group_name_H-M_alt    "P 1"
_space_group_IT_number       1

loop_
  _space_group_symop_operation_xyz
  'x, y, z'

loop_
  _atom_site_type_symbol
  _atom_site_label
  _atom_site_symmetry_multiplicity
  _atom_site_fract_x
  _atom_site_fract_y
  _atom_site_fract_z
  _atom_site_occupancy
  Li  Li1       1.0  0.24999991606721592  0.2500000345687705  0.2500000357344173  1.0000
  Li  Li2       1.0  0.7500000073718329  0.7499999776751803  0.7499998933745653  1.0000
  Os  Os1       1.0  3.073016170765791e-08  1.0258588471369448e-15  0.9999999864091254  1.0000
  F   F1        1.0  0.24661906725781724  0.24661898753546171  0.7533809719296447  1.0000
  F   F2        1.0  0.7533809497990281  0.7533810573027555  0.2466190413324646  1.0000
  F   F3        1.0  0.7533809729215086  0.24661898118968384  0.24661916044500326  1.0000
  F   F4        1.0  0.2466190261340213  0.7533809332714962  0.7533809287804865  1.0000
  F   F5        1.0  0.24661906981751613  0.7533808623373587  0.24661910098481069  1.0000
  F   F6        1.0  0.7533809725690963  0.24661914338774812  0.7533809120721425  1.0000
