data_image0
_chemical_formula_structural       Li2OsBr6
_chemical_formula_sum              "Li2 Os1 Br6"
_cell_length_a       7.232766978810325
_cell_length_b       7.232766941381476
_cell_length_c       7.232766865893965
_cell_angle_alpha    60.000000697510906
_cell_angle_beta     60.000000215015135
_cell_angle_gamma    60.00000003094142

_space_group_name_H-M_alt    "P 1"
_space_group_IT_number       1

loop_
  _space_group_symop_operation_xyz
  'x, y, z'

loop_
  _atom_site_type_symbol
  _atom_site_label
  _atom_site_symmetry_multiplicity
  _atom_site_fract_x
  _atom_site_fract_y
  _atom_site_fract_z
  _atom_site_occupancy
  Li  Li1       1.0  0.25000001624474916  0.24999995635838984  0.2500000341259954  1.0000
  Li  Li2       1.0  0.7499999766792612  0.7500000756612167  0.7499999867215702  1.0000
  Os  Os1       1.0  0.9999999751977502  1.693328256378699e-08  0.9999999873433226  1.0000
  Br  Br1       1.0  0.24371935020089916  0.24371930622405275  0.7562806655358885  1.0000
  Br  Br2       1.0  0.756280658253595  0.7562806648357363  0.2437193351658444  1.0000
  Br  Br3       1.0  0.7562806494817884  0.24371935076437673  0.2437192973421367  1.0000
  Br  Br4       1.0  0.2437193309608699  0.7562806660152754  0.7562806820622118  1.0000
  Br  Br5       1.0  0.24371938233775584  0.7562806362914011  0.24371931418693454  1.0000
  Br  Br6       1.0  0.7562806706412533  0.2437193161417774  0.7562806984525876  1.0000
