data_image0
_chemical_formula_structural       Li2PbF6
_chemical_formula_sum              "Li2 Pb1 F6"
_cell_length_a       5.774713384970369
_cell_length_b       5.774713834708375
_cell_length_c       5.774713626034275
_cell_angle_alpha    60.00000109637703
_cell_angle_beta     59.999998962863145
_cell_angle_gamma    59.999999429484845

_space_group_name_H-M_alt    "P 1"
_space_group_IT_number       1

loop_
  _space_group_symop_operation_xyz
  'x, y, z'

loop_
  _atom_site_type_symbol
  _atom_site_label
  _atom_site_symmetry_multiplicity
  _atom_site_fract_x
  _atom_site_fract_y
  _atom_site_fract_z
  _atom_site_occupancy
  Li  Li1       1.0  0.24999990927270996  0.24999997481591224  0.2500000890660753  1.0000
  Li  Li2       1.0  0.7500000215311492  0.7500001110847652  0.7499998330741914  1.0000
  Pb  Pb1       1.0  0.9999999950512904  1.4846127906721845e-08  1.063647924545652e-08  1.0000
  F   F1        1.0  0.2545105519044859  0.254510462539725  0.7454894887403996  1.0000
  F   F2        1.0  0.7454894892021453  0.7454894664161696  0.2545105311834398  1.0000
  F   F3        1.0  0.745489546261809  0.2545104400956906  0.25451049725351155  1.0000
  F   F4        1.0  0.2545104678591036  0.7454895758160961  0.7454895359774311  1.0000
  F   F5        1.0  0.25451044568660836  0.7454895112576948  0.25451054321930133  1.0000
  F   F6        1.0  0.7454895711616538  0.2545104664783346  0.7454894696387179  1.0000
