data_image0
_chemical_formula_structural       Li2PI6
_chemical_formula_sum              "Li2 P1 I6"
_cell_length_a       7.759900076090651
_cell_length_b       7.759900160655003
_cell_length_c       7.7599002392144145
_cell_angle_alpha    59.99999918648595
_cell_angle_beta     59.99999978027696
_cell_angle_gamma    60.000000406936586

_space_group_name_H-M_alt    "P 1"
_space_group_IT_number       1

loop_
  _space_group_symop_operation_xyz
  'x, y, z'

loop_
  _atom_site_type_symbol
  _atom_site_label
  _atom_site_symmetry_multiplicity
  _atom_site_fract_x
  _atom_site_fract_y
  _atom_site_fract_z
  _atom_site_occupancy
  Li  Li1       1.0  0.2500000261158895  0.24999995892813906  0.2500000126777086  1.0000
  Li  Li2       1.0  0.7499999971194344  0.7500000267228966  0.7499999895025623  1.0000
  P   P1        1.0  0.9999999985119649  0.9999999999999998  2.5228868513871743e-08  1.0000
  I   I1        1.0  0.2537439922672547  0.25374398705316736  0.7462559923938715  1.0000
  I   I2        1.0  0.7462560368144594  0.7462560301638642  0.2537439665953557  1.0000
  I   I3        1.0  0.7462559918535786  0.25374400046457135  0.25374398938045206  1.0000
  I   I4        1.0  0.2537439936547623  0.7462559867647639  0.7462560192760732  1.0000
  I   I5        1.0  0.253743971274449  0.7462560155750596  0.25374400144955006  1.0000
  I   I6        1.0  0.7462559994283166  0.25374399375047263  0.7462559932522536  1.0000
