data_image0
_chemical_formula_structural       Li2PtI6
_chemical_formula_sum              "Li2 Pt1 I6"
_cell_length_a       7.691946379177623
_cell_length_b       7.691946497760431
_cell_length_c       7.6919462999652195
_cell_angle_alpha    60.00000018426593
_cell_angle_beta     60.00000070779841
_cell_angle_gamma    59.99999908205726

_space_group_name_H-M_alt    "P 1"
_space_group_IT_number       1

loop_
  _space_group_symop_operation_xyz
  'x, y, z'

loop_
  _atom_site_type_symbol
  _atom_site_label
  _atom_site_symmetry_multiplicity
  _atom_site_fract_x
  _atom_site_fract_y
  _atom_site_fract_z
  _atom_site_occupancy
  Li  Li1       1.0  0.249999974282175  0.250000021746854  0.25000003392392445  1.0000
  Li  Li2       1.0  0.7500000166638787  0.7499999999585946  0.7499999548978505  1.0000
  Pt  Pt1       1.0  1.320726984473635e-07  5.4136263017219283e-08  0.9999999432972295  1.0000
  I   I1        1.0  0.2500764603511982  0.2500764767886283  0.7499235139682927  1.0000
  I   I2        1.0  0.7499234534909247  0.7499234159451303  0.250076576591232  1.0000
  I   I3        1.0  0.7499234847221798  0.25007652213829673  0.25007649103828566  1.0000
  I   I4        1.0  0.250076488922571  0.7499234884214506  0.7499235055066861  1.0000
  I   I5        1.0  0.2500764581070123  0.7499235167744377  0.25007647712241315  1.0000
  I   I6        1.0  0.7499235318686079  0.250076503338768  0.7499235051803337  1.0000
