data_image0
_chemical_formula_structural       Li2PF6
_chemical_formula_sum              "Li2 P1 F6"
_cell_length_a       5.310057723406227
_cell_length_b       5.310058179798401
_cell_length_c       5.310058116585107
_cell_angle_alpha    60.0000008195652
_cell_angle_beta     59.99999858251641
_cell_angle_gamma    60.000002196490854

_space_group_name_H-M_alt    "P 1"
_space_group_IT_number       1

loop_
  _space_group_symop_operation_xyz
  'x, y, z'

loop_
  _atom_site_type_symbol
  _atom_site_label
  _atom_site_symmetry_multiplicity
  _atom_site_fract_x
  _atom_site_fract_y
  _atom_site_fract_z
  _atom_site_occupancy
  Li  Li1       1.0  0.24999984302543696  0.24999989994632357  0.2500000788595904  1.0000
  Li  Li2       1.0  0.7500001330254665  0.7500000342759926  0.7499998766123649  1.0000
  P   P1        1.0  6.896756737271601e-09  1.845169760610704e-08  2.8756581262164687e-08  1.0000
  F   F1        1.0  0.2255605979483912  0.22556047234433124  0.7744395131787968  1.0000
  F   F2        1.0  0.7744392479344981  0.7744395979592533  0.22556053726389597  1.0000
  F   F3        1.0  0.7744395243779422  0.22556048275110205  0.2255606515797416  1.0000
  F   F4        1.0  0.2255605513933548  0.7744395437297026  0.7744393679763514  1.0000
  F   F5        1.0  0.22556047139339427  0.7744395708982101  0.22556062771779417  1.0000
  F   F6        1.0  0.7744395386136588  0.22556048326014025  0.7744394165313033  1.0000
