data_image0
_chemical_formula_structural       Li2PdCl6
_chemical_formula_sum              "Li2 Pd1 Cl6"
_cell_length_a       6.693078511532743
_cell_length_b       6.693078358378924
_cell_length_c       6.693078574394107
_cell_angle_alpha    59.99999863046005
_cell_angle_beta     59.9999986646843
_cell_angle_gamma    59.99999810786868

_space_group_name_H-M_alt    "P 1"
_space_group_IT_number       1

loop_
  _space_group_symop_operation_xyz
  'x, y, z'

loop_
  _atom_site_type_symbol
  _atom_site_label
  _atom_site_symmetry_multiplicity
  _atom_site_fract_x
  _atom_site_fract_y
  _atom_site_fract_z
  _atom_site_occupancy
  Li  Li1       1.0  0.24999998118994649  0.24999999797135794  0.2500000352252499  1.0000
  Li  Li2       1.0  0.7499999622691708  0.7499999481673773  0.7500000982823014  1.0000
  Pd  Pd1       1.0  8.627875251641006e-08  0.9999999688922458  0.999999888745977  1.0000
  Cl  Cl1       1.0  0.24754398129745026  0.2475440593684581  0.7524559645761721  1.0000
  Cl  Cl2       1.0  0.7524560103271491  0.7524559544753877  0.24754406019733582  1.0000
  Cl  Cl3       1.0  0.7524560043045903  0.2475440448052704  0.2475439690808583  1.0000
  Cl  Cl4       1.0  0.2475439431251361  0.7524560550423648  0.7524559854835261  1.0000
  Cl  Cl5       1.0  0.24754401806840373  0.7524559907701376  0.24754398749208134  1.0000
  Cl  Cl6       1.0  0.7524560170185058  0.24754397549714352  0.7524560034806153  1.0000
