data_image0
_chemical_formula_structural       Li2PdBr6
_chemical_formula_sum              "Li2 Pd1 Br6"
_cell_length_a       7.097359173983275
_cell_length_b       7.097359136884488
_cell_length_c       7.097359156823921
_cell_angle_alpha    59.999999425733634
_cell_angle_beta     59.9999994332487
_cell_angle_gamma    59.99999971566234

_space_group_name_H-M_alt    "P 1"
_space_group_IT_number       1

loop_
  _space_group_symop_operation_xyz
  'x, y, z'

loop_
  _atom_site_type_symbol
  _atom_site_label
  _atom_site_symmetry_multiplicity
  _atom_site_fract_x
  _atom_site_fract_y
  _atom_site_fract_z
  _atom_site_occupancy
  Li  Li1       1.0  0.25000000904104913  0.2499999629688094  0.25000002899519097  1.0000
  Li  Li2       1.0  0.7500000199724296  0.7500000079752184  0.7500000408893598  1.0000
  Pd  Pd1       1.0  1.1504232419847113e-09  0.9999999965487308  0.9999999729709276  1.0000
  Br  Br1       1.0  0.24932530716526957  0.249325329775173  0.7506746854876033  1.0000
  Br  Br2       1.0  0.75067469558586  0.7506747101942406  0.24932525875129585  1.0000
  Br  Br3       1.0  0.7506746665852282  0.24932535745899373  0.24932528630510867  1.0000
  Br  Br4       1.0  0.24932526428429624  0.7506746980411314  0.7506747227425817  1.0000
  Br  Br5       1.0  0.2493253335892391  0.7506746512337635  0.2493253093603495  1.0000
  Br  Br6       1.0  0.7506747085554146  0.24932528519757163  0.7506747021751959  1.0000
