data_image0
_chemical_formula_structural       Li2PtBr6
_chemical_formula_sum              "Li2 Pt1 Br6"
_cell_length_a       7.122983940010415
_cell_length_b       7.122984087063792
_cell_length_c       7.122983800983086
_cell_angle_alpha    60.000000803743376
_cell_angle_beta     60.000001538485286
_cell_angle_gamma    59.99999999140438

_space_group_name_H-M_alt    "P 1"
_space_group_IT_number       1

loop_
  _space_group_symop_operation_xyz
  'x, y, z'

loop_
  _atom_site_type_symbol
  _atom_site_label
  _atom_site_symmetry_multiplicity
  _atom_site_fract_x
  _atom_site_fract_y
  _atom_site_fract_z
  _atom_site_occupancy
  Li  Li1       1.0  0.25000000352143886  0.24999998097502624  0.25000001399365707  1.0000
  Li  Li2       1.0  0.7500000053891643  0.7499999876301716  0.7500000236199067  1.0000
  Pt  Pt1       1.0  0.999999970460762  0.9999999621726148  0.9999999676997275  1.0000
  Br  Br1       1.0  0.24701520395891766  0.247015218473649  0.7529847612545524  1.0000
  Br  Br2       1.0  0.752984860509842  0.7529848120309081  0.24701516007010613  1.0000
  Br  Br3       1.0  0.7529848128955625  0.24701520817098052  0.24701516146209754  1.0000
  Br  Br4       1.0  0.2470151207227611  0.7529848550026832  0.7529849184578958  1.0000
  Br  Br5       1.0  0.2470151134519213  0.752984863158942  0.24701509965022123  1.0000
  Br  Br6       1.0  0.7529849028926587  0.24701511232396264  0.7529848929020377  1.0000
