data_image0
_chemical_formula_structural       Li2PdI6
_chemical_formula_sum              "Li2 Pd1 I6"
_cell_length_a       7.659636340673229
_cell_length_b       7.659636262829442
_cell_length_c       7.659636404597335
_cell_angle_alpha    59.99999960849416
_cell_angle_beta     59.9999984836511
_cell_angle_gamma    59.99999999073396

_space_group_name_H-M_alt    "P 1"
_space_group_IT_number       1

loop_
  _space_group_symop_operation_xyz
  'x, y, z'

loop_
  _atom_site_type_symbol
  _atom_site_label
  _atom_site_symmetry_multiplicity
  _atom_site_fract_x
  _atom_site_fract_y
  _atom_site_fract_z
  _atom_site_occupancy
  Li  Li1       1.0  0.24999998988105385  0.2500000352823902  0.24999996299763572  1.0000
  Li  Li2       1.0  0.7500000100586892  0.7499999891231225  0.7500000172297717  1.0000
  Pd  Pd1       1.0  7.813205647668754e-08  0.9999999872083236  0.9999999229412793  1.0000
  I   I1        1.0  0.2526236929532819  0.25262369810712637  0.7473762823399263  1.0000
  I   I2        1.0  0.74737626392438  0.747376265537922  0.2526237367433041  1.0000
  I   I3        1.0  0.7473762594528192  0.2526237509015523  0.252623748100296  1.0000
  I   I4        1.0  0.2526236849675705  0.7473762862956369  0.7473763070182952  1.0000
  I   I5        1.0  0.2526237530028716  0.7473762635512659  0.2526237478522374  1.0000
  I   I6        1.0  0.7473762723216423  0.252623720880258  0.7473762749194938  1.0000
