data_image0
_chemical_formula_structural       Li2PBr6
_chemical_formula_sum              "Li2 P1 Br6"
_cell_length_a       7.089030821873135
_cell_length_b       7.08903079557064
_cell_length_c       7.089030900255154
_cell_angle_alpha    60.00000069496533
_cell_angle_beta     60.00000047686039
_cell_angle_gamma    60.00000040321663

_space_group_name_H-M_alt    "P 1"
_space_group_IT_number       1

loop_
  _space_group_symop_operation_xyz
  'x, y, z'

loop_
  _atom_site_type_symbol
  _atom_site_label
  _atom_site_symmetry_multiplicity
  _atom_site_fract_x
  _atom_site_fract_y
  _atom_site_fract_z
  _atom_site_occupancy
  Li  Li1       1.0  0.2499999887758286  0.25000005329748776  0.2500000053434395  1.0000
  Li  Li2       1.0  0.7499999930837252  0.7499999525730309  0.7500000329591509  1.0000
  P   P1        1.0  0.9999999989639845  0.9999999689020851  0.9999999963181443  1.0000
  Br  Br1       1.0  0.25067712390111635  0.2506771619498273  0.7493228481812464  1.0000
  Br  Br2       1.0  0.7493228395469957  0.7493228698356199  0.2506771454613293  1.0000
  Br  Br3       1.0  0.7493228543245729  0.2506771734327579  0.25067709341528954  1.0000
  Br  Br4       1.0  0.2506771445800815  0.7493228497143796  0.7493228797650198  1.0000
  Br  Br5       1.0  0.25067717281449076  0.7493228256079923  0.2506771262947385  1.0000
  Br  Br6       1.0  0.7493228793992127  0.25067713534331615  0.7493228837734518  1.0000
