data_image0
_chemical_formula_structural       Li2PdF6
_chemical_formula_sum              "Li2 Pd1 F6"
_cell_length_a       5.521249024235264
_cell_length_b       5.521249433716467
_cell_length_c       5.521249277346981
_cell_angle_alpha    59.999999851282325
_cell_angle_beta     59.999999912560426
_cell_angle_gamma    59.99999974073428

_space_group_name_H-M_alt    "P 1"
_space_group_IT_number       1

loop_
  _space_group_symop_operation_xyz
  'x, y, z'

loop_
  _atom_site_type_symbol
  _atom_site_label
  _atom_site_symmetry_multiplicity
  _atom_site_fract_x
  _atom_site_fract_y
  _atom_site_fract_z
  _atom_site_occupancy
  Li  Li1       1.0  0.25000007727244805  0.2499998709535721  0.2500000901676214  1.0000
  Li  Li2       1.0  0.7499999482490727  0.7500000431990143  0.7500000540342849  1.0000
  Pd  Pd1       1.0  0.9999999721778015  3.327357982383016e-08  0.999999986407203  1.0000
  F   F1        1.0  0.24763236042878775  0.2476322739558262  0.7523676621967711  1.0000
  F   F2        1.0  0.752367647937604  0.7523677355810234  0.24763229256227007  1.0000
  F   F3        1.0  0.7523676231118857  0.24763236803345828  0.24763238548682937  1.0000
  F   F4        1.0  0.24763231030204355  0.7523676969593572  0.7523676224888822  1.0000
  F   F5        1.0  0.24763234547433327  0.7523676637498751  0.24763235417698962  1.0000
  F   F6        1.0  0.7523677048464336  0.24763233913225827  0.7523675811210386  1.0000
