data_image0
_chemical_formula_structural       Li2ReCl6
_chemical_formula_sum              "Li2 Re1 Cl6"
_cell_length_a       6.863641439952426
_cell_length_b       6.863641409707492
_cell_length_c       6.863641585501279
_cell_angle_alpha    59.99999914875252
_cell_angle_beta     59.99999888692261
_cell_angle_gamma    59.99999808796212

_space_group_name_H-M_alt    "P 1"
_space_group_IT_number       1

loop_
  _space_group_symop_operation_xyz
  'x, y, z'

loop_
  _atom_site_type_symbol
  _atom_site_label
  _atom_site_symmetry_multiplicity
  _atom_site_fract_x
  _atom_site_fract_y
  _atom_site_fract_z
  _atom_site_occupancy
  Li  Li1       1.0  0.24999996545260417  0.25000001028182595  0.2500000196885307  1.0000
  Li  Li2       1.0  0.7499999482393398  0.7499999862355966  0.750000055429769  1.0000
  Re  Re1       1.0  3.2366342543602303e-10  0.9999999536057246  8.714121750976991e-08  1.0000
  Cl  Cl1       1.0  0.24317513365670823  0.2431750795164564  0.7568248787355562  1.0000
  Cl  Cl2       1.0  0.7568249171885378  0.7568249294917307  0.24317505745479834  1.0000
  Cl  Cl3       1.0  0.756824919373003  0.24317508982203165  0.24317510008251336  1.0000
  Cl  Cl4       1.0  0.24317509417203192  0.7568249049109942  0.7568248779220053  1.0000
  Cl  Cl5       1.0  0.2431751270122095  0.7568249540984548  0.24317505696523786  1.0000
  Cl  Cl6       1.0  0.7568249009595615  0.24317507810687028  0.7568248659507125  1.0000
