data_image0
_chemical_formula_structural       Li2ReF6
_chemical_formula_sum              "Li2 Re1 F6"
_cell_length_a       5.6893370528797025
_cell_length_b       5.689337129840002
_cell_length_c       5.6893370376068635
_cell_angle_alpha    60.00000238283585
_cell_angle_beta     60.000002743760945
_cell_angle_gamma    60.000002199262184

_space_group_name_H-M_alt    "P 1"
_space_group_IT_number       1

loop_
  _space_group_symop_operation_xyz
  'x, y, z'

loop_
  _atom_site_type_symbol
  _atom_site_label
  _atom_site_symmetry_multiplicity
  _atom_site_fract_x
  _atom_site_fract_y
  _atom_site_fract_z
  _atom_site_occupancy
  Li  Li1       1.0  0.24999996305892525  0.2499999677743733  0.2500000292373329  1.0000
  Li  Li2       1.0  0.7500000975875496  0.7499999722095909  0.750000017612669  1.0000
  Re  Re1       1.0  0.9999999738615982  0.999999987083787  3.183102495794362e-08  1.0000
  F   F1        1.0  0.24489766342599237  0.24489767726930045  0.7551022944626137  1.0000
  F   F2        1.0  0.7551022572598408  0.7551023294484298  0.24489772220921055  1.0000
  F   F3        1.0  0.7551023209797515  0.24489761825579273  0.2448977078497537  1.0000
  F   F4        1.0  0.24489765628829027  0.7551024013781509  0.7551022758305351  1.0000
  F   F5        1.0  0.24489773512754237  0.7551023613733584  0.24489755227769217  1.0000
  F   F6        1.0  0.755102321642617  0.24489767548220234  0.755102337341206  1.0000
