data_image0
_chemical_formula_structural       Li2RhI6
_chemical_formula_sum              "Li2 Rh1 I6"
_cell_length_a       7.671763814026907
_cell_length_b       7.671763941364714
_cell_length_c       7.671763973178281
_cell_angle_alpha    59.999999743311
_cell_angle_beta     60.00000004015325
_cell_angle_gamma    60.00000102657355

_space_group_name_H-M_alt    "P 1"
_space_group_IT_number       1

loop_
  _space_group_symop_operation_xyz
  'x, y, z'

loop_
  _atom_site_type_symbol
  _atom_site_label
  _atom_site_symmetry_multiplicity
  _atom_site_fract_x
  _atom_site_fract_y
  _atom_site_fract_z
  _atom_site_occupancy
  Li  Li1       1.0  0.24999997397360751  0.2499999635909327  0.2500000471472493  1.0000
  Li  Li2       1.0  0.7500000065863122  0.7500000025230321  0.7500000132538192  1.0000
  Rh  Rh1       1.0  0.9999999656715682  0.9999999584927702  3.791783059711421e-08  1.0000
  I   I1        1.0  0.24846701614838254  0.24846708198352987  0.7515329451419511  1.0000
  I   I2        1.0  0.7515330150668073  0.7515330166342833  0.2484669598089802  1.0000
  I   I3        1.0  0.7515329465272697  0.248467043297209  0.2484670695080112  1.0000
  I   I4        1.0  0.24846704765446087  0.7515329451668026  0.7515329442305425  1.0000
  I   I5        1.0  0.24846705036953834  0.7515329440363521  0.2484670522699017  1.0000
  I   I6        1.0  0.7515329759520755  0.24846704283122792  0.7515329331621143  1.0000
