data_image0
_chemical_formula_structural       Li2RhBr6
_chemical_formula_sum              "Li2 Rh1 Br6"
_cell_length_a       7.104263259018111
_cell_length_b       7.104263196967045
_cell_length_c       7.10426326627332
_cell_angle_alpha    59.99999984851978
_cell_angle_beta     59.99999986624218
_cell_angle_gamma    60.000000068088035

_space_group_name_H-M_alt    "P 1"
_space_group_IT_number       1

loop_
  _space_group_symop_operation_xyz
  'x, y, z'

loop_
  _atom_site_type_symbol
  _atom_site_label
  _atom_site_symmetry_multiplicity
  _atom_site_fract_x
  _atom_site_fract_y
  _atom_site_fract_z
  _atom_site_occupancy
  Li  Li1       1.0  0.2499999920998671  0.2500000295443292  0.2499999804253816  1.0000
  Li  Li2       1.0  0.7499999931786304  0.7499999989871912  0.7500000184800877  1.0000
  Rh  Rh1       1.0  0.9999999705124472  6.895830510989019e-08  1.5454761302209823e-08  1.0000
  Br  Br1       1.0  0.24739613277999095  0.24739617371261732  0.7526038375582554  1.0000
  Br  Br2       1.0  0.7526038238335444  0.7526038237876658  0.24739616304320383  1.0000
  Br  Br3       1.0  0.7526038787363952  0.24739612663481464  0.24739613808551073  1.0000
  Br  Br4       1.0  0.24739616653408575  0.7526038243186126  0.7526038034555551  1.0000
  Br  Br5       1.0  0.24739618495199578  0.7526037852200127  0.24739621020961747  1.0000
  Br  Br6       1.0  0.7526038569691647  0.24739617090528776  0.752603830360162  1.0000
