data_image0
_chemical_formula_structural       Li2RuBr6
_chemical_formula_sum              "Li2 Ru1 Br6"
_cell_length_a       7.1727732461942315
_cell_length_b       7.172773214274873
_cell_length_c       7.172773201867402
_cell_angle_alpha    60.00000022129961
_cell_angle_beta     59.99999963793369
_cell_angle_gamma    60.00000000552349

_space_group_name_H-M_alt    "P 1"
_space_group_IT_number       1

loop_
  _space_group_symop_operation_xyz
  'x, y, z'

loop_
  _atom_site_type_symbol
  _atom_site_label
  _atom_site_symmetry_multiplicity
  _atom_site_fract_x
  _atom_site_fract_y
  _atom_site_fract_z
  _atom_site_occupancy
  Li  Li1       1.0  0.24999997520351205  0.25000002513448893  0.2499999877872234  1.0000
  Li  Li2       1.0  0.75000000369751  0.7499999763689649  0.7500000282077093  1.0000
  Ru  Ru1       1.0  3.2196766975378243e-08  0.0  0.9999999783249728  1.0000
  Br  Br1       1.0  0.24571598062743996  0.2457159584937667  0.7542840475558552  1.0000
  Br  Br2       1.0  0.7542840017862179  0.7542840276422643  0.24571598691391877  1.0000
  Br  Br3       1.0  0.7542840981648613  0.24571593032275804  0.24571590601279034  1.0000
  Br  Br4       1.0  0.24571595121194495  0.7542840336158847  0.7542840921324944  1.0000
  Br  Br5       1.0  0.24571593716592763  0.7542840554861472  0.24571592673852022  1.0000
  Br  Br6       1.0  0.7542840324331677  0.2457159835821177  0.7542840528183957  1.0000
