data_image0
_chemical_formula_structural       Li2RhCl6
_chemical_formula_sum              "Li2 Rh1 Cl6"
_cell_length_a       6.730601235375637
_cell_length_b       6.730601338522836
_cell_length_c       6.7306011076301955
_cell_angle_alpha    60.00000257921091
_cell_angle_beta     60.00000184114107
_cell_angle_gamma    60.00000099226396

_space_group_name_H-M_alt    "P 1"
_space_group_IT_number       1

loop_
  _space_group_symop_operation_xyz
  'x, y, z'

loop_
  _atom_site_type_symbol
  _atom_site_label
  _atom_site_symmetry_multiplicity
  _atom_site_fract_x
  _atom_site_fract_y
  _atom_site_fract_z
  _atom_site_occupancy
  Li  Li1       1.0  0.2500000012475977  0.2500000834772883  0.2499999873499082  1.0000
  Li  Li2       1.0  0.7500000502246328  0.7499999720229198  0.7499999368668918  1.0000
  Rh  Rh1       1.0  5.16464904970025e-09  0.999999969065673  1.882784427097263e-08  1.0000
  Cl  Cl1       1.0  0.24485082808714614  0.24485089964196582  0.7551491844923103  1.0000
  Cl  Cl2       1.0  0.7551491240023316  0.7551491194649177  0.2448508477278151  1.0000
  Cl  Cl3       1.0  0.7551490622061354  0.24485080978737342  0.2448509316190955  1.0000
  Cl  Cl4       1.0  0.2448508836989273  0.7551490837625354  0.755149124870684  1.0000
  Cl  Cl5       1.0  0.24485086802708778  0.7551491377953641  0.24485090422549088  1.0000
  Cl  Cl6       1.0  0.7551491925256194  0.2448509213441769  0.7551490492894383  1.0000
