data_image0
_chemical_formula_structural       Li2ReI6
_chemical_formula_sum              "Li2 Re1 I6"
_cell_length_a       7.846093034211356
_cell_length_b       7.846093122686447
_cell_length_c       7.846093151891768
_cell_angle_alpha    59.99999887904639
_cell_angle_beta     59.999999897862985
_cell_angle_gamma    60.000000672039356

_space_group_name_H-M_alt    "P 1"
_space_group_IT_number       1

loop_
  _space_group_symop_operation_xyz
  'x, y, z'

loop_
  _atom_site_type_symbol
  _atom_site_label
  _atom_site_symmetry_multiplicity
  _atom_site_fract_x
  _atom_site_fract_y
  _atom_site_fract_z
  _atom_site_occupancy
  Li  Li1       1.0  0.24999996142675368  0.25000003241725305  0.2500000101009988  1.0000
  Li  Li2       1.0  0.7500000031172522  0.7499999879844605  0.7499999770864041  1.0000
  Re  Re1       1.0  0.9999999768687141  2.9658267201654397e-08  0.9999999839913124  1.0000
  I   I1        1.0  0.2460180584074248  0.24601807109692406  0.7539819402566645  1.0000
  I   I2        1.0  0.7539819219094245  0.753981919646522  0.2460180806383639  1.0000
  I   I3        1.0  0.7539819118453019  0.24601811012762376  0.246018072121333  1.0000
  I   I4        1.0  0.24601813929114327  0.753981871250055  0.7539818823602306  1.0000
  I   I5        1.0  0.24601808868117264  0.7539819198981687  0.2460180989653575  1.0000
  I   I6        1.0  0.7539819424612267  0.24601805523566306  0.7539819489298913  1.0000
