data_image0
_chemical_formula_structural       Li2RhF6
_chemical_formula_sum              "Li2 Rh1 F6"
_cell_length_a       5.563978432247219
_cell_length_b       5.563978092464342
_cell_length_c       5.563978297260316
_cell_angle_alpha    59.999998808773825
_cell_angle_beta     59.99999920354175
_cell_angle_gamma    59.999998759800256

_space_group_name_H-M_alt    "P 1"
_space_group_IT_number       1

loop_
  _space_group_symop_operation_xyz
  'x, y, z'

loop_
  _atom_site_type_symbol
  _atom_site_label
  _atom_site_symmetry_multiplicity
  _atom_site_fract_x
  _atom_site_fract_y
  _atom_site_fract_z
  _atom_site_occupancy
  Li  Li1       1.0  0.25000003411932686  0.25000007029187876  0.24999995046110493  1.0000
  Li  Li2       1.0  0.7499999853887394  0.7500000325781396  0.7500000745022418  1.0000
  Rh  Rh1       1.0  0.9999999703161507  3.3018054778979795e-08  7.319273448934858e-09  1.0000
  F   F1        1.0  0.24571925484821056  0.24571928922536318  0.7542807039678701  1.0000
  F   F2        1.0  0.7542807796511264  0.7542806441519727  0.2457192634505453  1.0000
  F   F3        1.0  0.7542806990898564  0.2457192310527905  0.2457192969177706  1.0000
  F   F4        1.0  0.24571921644390465  0.7542808101835244  0.7542807389585754  1.0000
  F   F5        1.0  0.2457193624968599  0.7542807079045781  0.24571923123807865  1.0000
  F   F6        1.0  0.754280735017248  0.24571918585109243  0.7542807406592594  1.0000
