data_image0
_chemical_formula_structural       Li2SnI6
_chemical_formula_sum              "Li2 Sn1 I6"
_cell_length_a       8.006249155864134
_cell_length_b       8.006249171928317
_cell_length_c       8.0062491229903
_cell_angle_alpha    60.000000791661456
_cell_angle_beta     60.00000021824092
_cell_angle_gamma    60.000000262857405

_space_group_name_H-M_alt    "P 1"
_space_group_IT_number       1

loop_
  _space_group_symop_operation_xyz
  'x, y, z'

loop_
  _atom_site_type_symbol
  _atom_site_label
  _atom_site_symmetry_multiplicity
  _atom_site_fract_x
  _atom_site_fract_y
  _atom_site_fract_z
  _atom_site_occupancy
  Li  Li1       1.0  0.24999996909173816  0.2500000068778265  0.24999998561936224  1.0000
  Li  Li2       1.0  0.7500000275218198  0.7499999670927153  0.7500000259251617  1.0000
  Sn  Sn1       1.0  0.9999999825330474  0.9999999831729026  1.3399951874240504e-08  1.0000
  I   I1        1.0  0.2600450709698447  0.2600450835187469  0.7399549361928858  1.0000
  I   I2        1.0  0.7399549409685203  0.7399549439925593  0.26004504966202296  1.0000
  I   I3        1.0  0.7399549567753103  0.2600450457042384  0.2600450672419475  1.0000
  I   I4        1.0  0.2600450494090687  0.7399549558015538  0.7399549307456381  1.0000
  I   I5        1.0  0.260045072610751  0.7399549282683348  0.2600450636360765  1.0000
  I   I6        1.0  0.7399549286494816  0.260045079356402  0.7399549300070372  1.0000
