data_image0
_chemical_formula_structural       Li2SiI6
_chemical_formula_sum              "Li2 Si1 I6"
_cell_length_a       7.777612156066296
_cell_length_b       7.777612180822463
_cell_length_c       7.777612195533275
_cell_angle_alpha    59.99999966475355
_cell_angle_beta     60.00000000358096
_cell_angle_gamma    60.00000091255824

_space_group_name_H-M_alt    "P 1"
_space_group_IT_number       1

loop_
  _space_group_symop_operation_xyz
  'x, y, z'

loop_
  _atom_site_type_symbol
  _atom_site_label
  _atom_site_symmetry_multiplicity
  _atom_site_fract_x
  _atom_site_fract_y
  _atom_site_fract_z
  _atom_site_occupancy
  Li  Li1       1.0  0.24999998642573645  0.25000002165262314  0.2499999921994738  1.0000
  Li  Li2       1.0  0.7500000245579546  0.749999989372006  0.7500000023228475  1.0000
  Si  Si1       1.0  0.9999999755560864  0.9999999842529447  1.4952517811696665e-08  1.0000
  I   I1        1.0  0.24624016577617874  0.24624018831539188  0.7537598194828977  1.0000
  I   I2        1.0  0.75375986554227  0.7537598463298203  0.24624012734692008  1.0000
  I   I3        1.0  0.7537597981434808  0.2462401857243147  0.24624018277966778  1.0000
  I   I4        1.0  0.24624017555937927  0.7537598079785532  0.7537598634730408  1.0000
  I   I5        1.0  0.24624019666455416  0.7537598177496894  0.24624015423131035  1.0000
  I   I6        1.0  0.7537598125051576  0.24624015863141868  0.7537598430908613  1.0000
