data_image0
_chemical_formula_structural       Li2SBr6
_chemical_formula_sum              "Li2 S1 Br6"
_cell_length_a       7.043759328133498
_cell_length_b       7.043759365442179
_cell_length_c       7.04375923511446
_cell_angle_alpha    59.99999992072126
_cell_angle_beta     59.99999993271813
_cell_angle_gamma    59.999999517041445

_space_group_name_H-M_alt    "P 1"
_space_group_IT_number       1

loop_
  _space_group_symop_operation_xyz
  'x, y, z'

loop_
  _atom_site_type_symbol
  _atom_site_label
  _atom_site_symmetry_multiplicity
  _atom_site_fract_x
  _atom_site_fract_y
  _atom_site_fract_z
  _atom_site_occupancy
  Li  Li1       1.0  0.2500000316780251  0.24999994224204058  0.2500000267447412  1.0000
  Li  Li2       1.0  0.7499999967370115  0.750000052765692  0.7499999865493439  1.0000
  S   S1        1.0  0.9999999478058264  4.346914864224788e-08  0.9999999518337437  1.0000
  Br  Br1       1.0  0.25489518411159845  0.2548951495398476  0.7451048230467837  1.0000
  Br  Br2       1.0  0.7451048575345355  0.7451048106925668  0.25489516836639353  1.0000
  Br  Br3       1.0  0.745104834017887  0.2548951724484719  0.25489517179149307  1.0000
  Br  Br4       1.0  0.25489514665786317  0.7451048329918566  0.7451048658347234  1.0000
  Br  Br5       1.0  0.25489516593005856  0.7451048219897577  0.2548951519772656  1.0000
  Br  Br6       1.0  0.7451048430119706  0.2548951625853797  0.7451048592332635  1.0000
