data_image0
_chemical_formula_structural       Li2SnF6
_chemical_formula_sum              "Li2 Sn1 F6"
_cell_length_a       5.730469125918708
_cell_length_b       5.730469046079866
_cell_length_c       5.7304686986889415
_cell_angle_alpha    59.99999951363196
_cell_angle_beta     59.99999907877308
_cell_angle_gamma    59.99999841534374

_space_group_name_H-M_alt    "P 1"
_space_group_IT_number       1

loop_
  _space_group_symop_operation_xyz
  'x, y, z'

loop_
  _atom_site_type_symbol
  _atom_site_label
  _atom_site_symmetry_multiplicity
  _atom_site_fract_x
  _atom_site_fract_y
  _atom_site_fract_z
  _atom_site_occupancy
  Li  Li1       1.0  0.24999996855402898  0.2499998902991003  0.25000013636242185  1.0000
  Li  Li2       1.0  0.7499999860741124  0.7499999978966558  0.7500000326208294  1.0000
  Sn  Sn1       1.0  0.9999999999999989  0.9999999999999994  3.664621791117877e-08  1.0000
  F   F1        1.0  0.24460032409040405  0.24460021070764063  0.755399755117826  1.0000
  F   F2        1.0  0.7553996599876965  0.7553997886251522  0.2446002126925776  1.0000
  F   F3        1.0  0.7553997689202354  0.2446002945982466  0.24460028056093014  1.0000
  F   F4        1.0  0.24460025291236037  0.7553998030480769  0.7553996209605157  1.0000
  F   F5        1.0  0.24460027421375471  0.7553996463697787  0.24460032931040673  1.0000
  F   F6        1.0  0.7553997556998898  0.2446004149432831  0.7553995898272619  1.0000
