data_image0
_chemical_formula_structural       Li2SeCl6
_chemical_formula_sum              "Li2 Se1 Cl6"
_cell_length_a       6.869960523176722
_cell_length_b       6.869960329457501
_cell_length_c       6.869960726050709
_cell_angle_alpha    59.99999756636324
_cell_angle_beta     59.999998641845096
_cell_angle_gamma    60.00000046743523

_space_group_name_H-M_alt    "P 1"
_space_group_IT_number       1

loop_
  _space_group_symop_operation_xyz
  'x, y, z'

loop_
  _atom_site_type_symbol
  _atom_site_label
  _atom_site_symmetry_multiplicity
  _atom_site_fract_x
  _atom_site_fract_y
  _atom_site_fract_z
  _atom_site_occupancy
  Li  Li1       1.0  0.25000001139214023  0.25000000245602294  0.24999996472411065  1.0000
  Li  Li2       1.0  0.7499999833446971  0.7500000287611144  0.7500000369855621  1.0000
  Se  Se1       1.0  2.271549212473166e-08  4.278609588918274e-08  0.9999999002910355  1.0000
  Cl  Cl1       1.0  0.2495112812978508  0.24951124749928355  0.7504887286467805  1.0000
  Cl  Cl2       1.0  0.7504887664787862  0.7504887052766813  0.24951123918398196  1.0000
  Cl  Cl3       1.0  0.7504886855772414  0.24951132452218283  0.2495113333236836  1.0000
  Cl  Cl4       1.0  0.24951126992451828  0.7504886781708902  0.7504887313778082  1.0000
  Cl  Cl5       1.0  0.24951129432327798  0.7504886964697189  0.24951133952539725  1.0000
  Cl  Cl6       1.0  0.7504886881906755  0.24951127056827554  0.7504887178526376  1.0000
