data_image0
_chemical_formula_structural       Li2SCl6
_chemical_formula_sum              "Li2 S1 Cl6"
_cell_length_a       6.7696826648209685
_cell_length_b       6.769682809277393
_cell_length_c       6.76968264350081
_cell_angle_alpha    60.000000996159315
_cell_angle_beta     60.00000095512347
_cell_angle_gamma    60.00000058899082

_space_group_name_H-M_alt    "P 1"
_space_group_IT_number       1

loop_
  _space_group_symop_operation_xyz
  'x, y, z'

loop_
  _atom_site_type_symbol
  _atom_site_label
  _atom_site_symmetry_multiplicity
  _atom_site_fract_x
  _atom_site_fract_y
  _atom_site_fract_z
  _atom_site_occupancy
  Li  Li1       1.0  0.2499999805680542  0.2500000919020544  0.24999996546574366  1.0000
  Li  Li2       1.0  0.7500000063876429  0.7499999844311835  0.7500000023071101  1.0000
  S   S1        1.0  0.9999999742076582  1.0854968370388129e-08  0.9999999439501994  1.0000
  Cl  Cl1       1.0  0.24709437867435505  0.2470943918706865  0.7529056442132475  1.0000
  Cl  Cl2       1.0  0.7529055751341812  0.7529055741037085  0.24709446030826904  1.0000
  Cl  Cl3       1.0  0.7529056395803074  0.24709434993355414  0.2470943494641434  1.0000
  Cl  Cl4       1.0  0.24709440905830785  0.7529055925217426  0.7529056337257846  1.0000
  Cl  Cl5       1.0  0.24709437620891878  0.7529056473559242  0.2470943535319635  1.0000
  Cl  Cl6       1.0  0.7529056559403088  0.24709435480169742  0.7529056198688887  1.0000
