data_image0
_chemical_formula_structural       Li2SeBr6
_chemical_formula_sum              "Li2 Se1 Br6"
_cell_length_a       7.303415478720467
_cell_length_b       7.303415430029375
_cell_length_c       7.303415581026148
_cell_angle_alpha    59.99999940203405
_cell_angle_beta     59.99999911895019
_cell_angle_gamma    59.99999942409206

_space_group_name_H-M_alt    "P 1"
_space_group_IT_number       1

loop_
  _space_group_symop_operation_xyz
  'x, y, z'

loop_
  _atom_site_type_symbol
  _atom_site_label
  _atom_site_symmetry_multiplicity
  _atom_site_fract_x
  _atom_site_fract_y
  _atom_site_fract_z
  _atom_site_occupancy
  Li  Li1       1.0  0.24999997727062723  0.2500000344030849  0.24999999894303856  1.0000
  Li  Li2       1.0  0.7499999902967985  0.7499999656995083  0.750000021280084  1.0000
  Se  Se1       1.0  0.9999999715412471  0.9999999999999999  0.9999999553528146  1.0000
  Br  Br1       1.0  0.2532529004949885  0.25325292766164026  0.7467470961000634  1.0000
  Br  Br2       1.0  0.7467471033404933  0.7467470774717974  0.2532529062120536  1.0000
  Br  Br3       1.0  0.7467470869690862  0.25325294033652296  0.2532528750748147  1.0000
  Br  Br4       1.0  0.25325290375498444  0.7467470614430184  0.7467471395776233  1.0000
  Br  Br5       1.0  0.2532529472466015  0.7467470937222661  0.25325291393660343  1.0000
  Br  Br6       1.0  0.7467471243024155  0.25325289799558676  0.746747089980208  1.0000
