data_image0
_chemical_formula_structural       Li2SiCl6
_chemical_formula_sum              "Li2 Si1 Cl6"
_cell_length_a       6.607799885066133
_cell_length_b       6.607800032177949
_cell_length_c       6.607799822761718
_cell_angle_alpha    59.99999977749012
_cell_angle_beta     59.99999930445238
_cell_angle_gamma    60.00000160314021

_space_group_name_H-M_alt    "P 1"
_space_group_IT_number       1

loop_
  _space_group_symop_operation_xyz
  'x, y, z'

loop_
  _atom_site_type_symbol
  _atom_site_label
  _atom_site_symmetry_multiplicity
  _atom_site_fract_x
  _atom_site_fract_y
  _atom_site_fract_z
  _atom_site_occupancy
  Li  Li1       1.0  0.2499999725857044  0.2500000058095493  0.2499999835883251  1.0000
  Li  Li2       1.0  0.7500000029414907  0.7500000711796713  0.7499999418317949  1.0000
  Si  Si1       1.0  4.306608131574182e-09  1.8534835078319674e-08  3.095344318777183e-08  1.0000
  Cl  Cl1       1.0  0.23674673344504402  0.23674667361086593  0.7632532783574031  1.0000
  Cl  Cl2       1.0  0.7632531269453324  0.7632532402718004  0.2367468361253859  1.0000
  Cl  Cl3       1.0  0.7632532544896542  0.2367467574138581  0.23674673686046932  1.0000
  Cl  Cl4       1.0  0.23674684999987783  0.7632532157802858  0.7632532289437268  1.0000
  Cl  Cl5       1.0  0.23674684600094548  0.7632531861451289  0.23674674687807132  1.0000
  Cl  Cl6       1.0  0.7632531822868758  0.23674684265351997  0.7632532201445494  1.0000
