data_image0
_chemical_formula_structural       Li2SnBr6
_chemical_formula_sum              "Li2 Sn1 Br6"
_cell_length_a       7.2792919327284675
_cell_length_b       7.279291983233832
_cell_length_c       7.2792918576213115
_cell_angle_alpha    60.00000043578618
_cell_angle_beta     60.00000080899872
_cell_angle_gamma    60.00000013320422

_space_group_name_H-M_alt    "P 1"
_space_group_IT_number       1

loop_
  _space_group_symop_operation_xyz
  'x, y, z'

loop_
  _atom_site_type_symbol
  _atom_site_label
  _atom_site_symmetry_multiplicity
  _atom_site_fract_x
  _atom_site_fract_y
  _atom_site_fract_z
  _atom_site_occupancy
  Li  Li1       1.0  0.24999998249687133  0.25000002109165403  0.2500000182302502  1.0000
  Li  Li2       1.0  0.7500000386152404  0.7499999707371604  0.7499999894568584  1.0000
  Sn  Sn1       1.0  0.9999999639334433  0.9999999226047481  4.528024157400693e-09  1.0000
  Br  Br1       1.0  0.2551095697310728  0.2551095883555188  0.7448904191772896  1.0000
  Br  Br2       1.0  0.7448904726102278  0.7448904825510534  0.2551095246187457  1.0000
  Br  Br3       1.0  0.7448904290843692  0.25510956038710253  0.25510955228908955  1.0000
  Br  Br4       1.0  0.255109520323389  0.7448905037894479  0.7448904852990477  1.0000
  Br  Br5       1.0  0.2551095085363988  0.7448904751197146  0.2551094938940832  1.0000
  Br  Br6       1.0  0.7448905149317874  0.2551094763289683  0.7448905163199341  1.0000
