data_image0
_chemical_formula_structural       Li2TeBr6
_chemical_formula_sum              "Li2 Te1 Br6"
_cell_length_a       7.421065190089469
_cell_length_b       7.421065206343034
_cell_length_c       7.421065385858674
_cell_angle_alpha    59.999999226479304
_cell_angle_beta     59.99999849928952
_cell_angle_gamma    60.00000046821619

_space_group_name_H-M_alt    "P 1"
_space_group_IT_number       1

loop_
  _space_group_symop_operation_xyz
  'x, y, z'

loop_
  _atom_site_type_symbol
  _atom_site_label
  _atom_site_symmetry_multiplicity
  _atom_site_fract_x
  _atom_site_fract_y
  _atom_site_fract_z
  _atom_site_occupancy
  Li  Li1       1.0  0.25000001607453964  0.2499999782800669  0.25000002150445916  1.0000
  Li  Li2       1.0  0.7500000024233971  0.7499999975539802  0.7500000075460438  1.0000
  Te  Te1       1.0  0.9999999329528065  0.9999999257336801  0.9999999332101847  1.0000
  Br  Br1       1.0  0.2583477882216344  0.2583478440109461  0.7416521711399447  1.0000
  Br  Br2       1.0  0.7416522408202091  0.7416522589010239  0.25834774193660404  1.0000
  Br  Br3       1.0  0.7416521135458046  0.258347870675251  0.2583478557586231  1.0000
  Br  Br4       1.0  0.25834780063691004  0.7416522173834542  0.7416521895498936  1.0000
  Br  Br5       1.0  0.25834788271300013  0.741652120369237  0.25834789588255086  1.0000
  Br  Br6       1.0  0.7416522267084864  0.2583477927510312  0.7416521823962909  1.0000
