data_image0
_chemical_formula_structural       Li2TaI6
_chemical_formula_sum              "Li2 Ta1 I6"
_cell_length_a       8.00478686226579
_cell_length_b       8.004786821372017
_cell_length_c       8.004786862519584
_cell_angle_alpha    60.00000041152916
_cell_angle_beta     59.9999999139828
_cell_angle_gamma    60.000000027808426

_space_group_name_H-M_alt    "P 1"
_space_group_IT_number       1

loop_
  _space_group_symop_operation_xyz
  'x, y, z'

loop_
  _atom_site_type_symbol
  _atom_site_label
  _atom_site_symmetry_multiplicity
  _atom_site_fract_x
  _atom_site_fract_y
  _atom_site_fract_z
  _atom_site_occupancy
  Li  Li1       1.0  0.2500000288132412  0.24999997967900445  0.24999999403625983  1.0000
  Li  Li2       1.0  0.7499999681086561  0.7500000170678089  0.7500000085051786  1.0000
  Ta  Ta1       1.0  0.999999967754719  1.5300157270178417e-09  3.034866268400723e-08  1.0000
  I   I1        1.0  0.2457755889318215  0.245775600903383  0.7542243919482737  1.0000
  I   I2        1.0  0.7542244279952319  0.754224431033789  0.24577557300138725  1.0000
  I   I3        1.0  0.7542244487768183  0.2457755420790631  0.2457755570383127  1.0000
  I   I4        1.0  0.24577552649237777  0.7542244806780152  0.754224410843779  1.0000
  I   I5        1.0  0.24577558482502976  0.7542244021918814  0.24577562273241627  1.0000
  I   I6        1.0  0.7542244602398126  0.24577554100438637  0.7542244149933871  1.0000
