data_image0
_chemical_formula_structural       Li2TiI6
_chemical_formula_sum              "Li2 Ti1 I6"
_cell_length_a       7.935054346024834
_cell_length_b       7.935054299769073
_cell_length_c       7.9350543693569495
_cell_angle_alpha    60.00000055565537
_cell_angle_beta     59.99999995116716
_cell_angle_gamma    60.000001307519156

_space_group_name_H-M_alt    "P 1"
_space_group_IT_number       1

loop_
  _space_group_symop_operation_xyz
  'x, y, z'

loop_
  _atom_site_type_symbol
  _atom_site_label
  _atom_site_symmetry_multiplicity
  _atom_site_fract_x
  _atom_site_fract_y
  _atom_site_fract_z
  _atom_site_occupancy
  Li  Li1       1.0  0.24999998961593908  0.2499999705074029  0.25000001347680434  1.0000
  Li  Li2       1.0  0.7500000070483721  0.7500000195644951  0.7500000214989178  1.0000
  Ti  Ti1       1.0  4.214250410040082e-08  0.9999999521527029  2.4276319982027818e-08  1.0000
  I   I1        1.0  0.24435521159637344  0.2443551747412275  0.7556448060430865  1.0000
  I   I2        1.0  0.7556448128930765  0.7556448060699033  0.2443551906651411  1.0000
  I   I3        1.0  0.7556447770279515  0.24435522367156073  0.24435521004396427  1.0000
  I   I4        1.0  0.24435521218386985  0.7556447756611043  0.7556448114253113  1.0000
  I   I5        1.0  0.2443552164323989  0.7556447970914428  0.2443551802478515  1.0000
  I   I6        1.0  0.7556447246244731  0.24435528558812675  0.7556447454911367  1.0000
