data_image0
_chemical_formula_structural       Li2TaF6
_chemical_formula_sum              "Li2 Ta1 F6"
_cell_length_a       5.735771447707393
_cell_length_b       5.735771948535019
_cell_length_c       5.735770910194885
_cell_angle_alpha    60.0000030394546
_cell_angle_beta     60.00000534884842
_cell_angle_gamma    60.00000549842255

_space_group_name_H-M_alt    "P 1"
_space_group_IT_number       1

loop_
  _space_group_symop_operation_xyz
  'x, y, z'

loop_
  _atom_site_type_symbol
  _atom_site_label
  _atom_site_symmetry_multiplicity
  _atom_site_fract_x
  _atom_site_fract_y
  _atom_site_fract_z
  _atom_site_occupancy
  Li  Li1       1.0  0.25000015391464264  0.24999986011541978  0.2499999698522471  1.0000
  Li  Li2       1.0  0.7499997990766979  0.7500003725331196  0.7499999563773647  1.0000
  Ta  Ta1       1.0  0.9999999534531663  1.2811648499557005e-08  0.9999999750249162  1.0000
  F   F1        1.0  0.24105482520694158  0.2410548640622481  0.7589451592864096  1.0000
  F   F2        1.0  0.7589450923048278  0.7589450824594962  0.24105487195615743  1.0000
  F   F3        1.0  0.7589450937104483  0.24105488456526417  0.2410548960243102  1.0000
  F   F4        1.0  0.2410549690730337  0.758945115338345  0.7589451056292614  1.0000
  F   F5        1.0  0.24105496659163944  0.7589450815351627  0.24105475183912745  1.0000
  F   F6        1.0  0.7589450656107715  0.24105476249340754  0.7589451617242425  1.0000
