data_image0
_chemical_formula_structural       Li2TeF6
_chemical_formula_sum              "Li2 Te1 F6"
_cell_length_a       5.9847645738727255
_cell_length_b       5.984764635138787
_cell_length_c       5.98476466743143
_cell_angle_alpha    59.99999758756268
_cell_angle_beta     59.99999910718467
_cell_angle_gamma    59.999998993969925

_space_group_name_H-M_alt    "P 1"
_space_group_IT_number       1

loop_
  _space_group_symop_operation_xyz
  'x, y, z'

loop_
  _atom_site_type_symbol
  _atom_site_label
  _atom_site_symmetry_multiplicity
  _atom_site_fract_x
  _atom_site_fract_y
  _atom_site_fract_z
  _atom_site_occupancy
  Li  Li1       1.0  0.24999995544742462  0.2499994675501906  0.25000050016799463  1.0000
  Li  Li2       1.0  0.7500000135411973  0.7499995875381175  0.7500001360205676  1.0000
  Te  Te1       1.0  0.9999999012293997  5.3207387016527415e-08  0.999999917514309  1.0000
  F   F1        1.0  0.2461054201621996  0.24610581080269983  0.75389406763289  1.0000
  F   F2        1.0  0.7538940477199344  0.7538948691572962  0.24610526311832917  1.0000
  F   F3        1.0  0.7538940797647575  0.2461062353796122  0.24610529860763417  1.0000
  F   F4        1.0  0.24610513280432147  0.7538949500505343  0.7538940557759728  1.0000
  F   F5        1.0  0.2461063577794884  0.7538937813945074  0.2461061781562849  1.0000
  F   F6        1.0  0.7538949956423622  0.2461052184399594  0.7538946890500604  1.0000
