data_image0
_chemical_formula_structural       Li2TeCl6
_chemical_formula_sum              "Li2 Te1 Cl6"
_cell_length_a       7.039408067282583
_cell_length_b       7.039408092756073
_cell_length_c       7.039407911465347
_cell_angle_alpha    60.00000079737255
_cell_angle_beta     60.00000025180364
_cell_angle_gamma    59.999997323446934

_space_group_name_H-M_alt    "P 1"
_space_group_IT_number       1

loop_
  _space_group_symop_operation_xyz
  'x, y, z'

loop_
  _atom_site_type_symbol
  _atom_site_label
  _atom_site_symmetry_multiplicity
  _atom_site_fract_x
  _atom_site_fract_y
  _atom_site_fract_z
  _atom_site_occupancy
  Li  Li1       1.0  0.25000004842347323  0.2499999383893319  0.25000001471249117  1.0000
  Li  Li2       1.0  0.7499999757327692  0.7499999891520724  0.749999959520968  1.0000
  Te  Te1       1.0  2.188726241607498e-08  2.7837450489961607e-08  0.9999999552496072  1.0000
  Cl  Cl1       1.0  0.25233070086362497  0.2523307286850515  0.7476692967824861  1.0000
  Cl  Cl2       1.0  0.7476692742473506  0.7476692475718945  0.2523307557474069  1.0000
  Cl  Cl3       1.0  0.7476693906927849  0.2523305991987162  0.25233063381818543  1.0000
  Cl  Cl4       1.0  0.2523306329488675  0.747669384017591  0.7476693867049663  1.0000
  Cl  Cl5       1.0  0.252330586698171  0.7476694217011922  0.25233062757905617  1.0000
  Cl  Cl6       1.0  0.7476693869031816  0.2523306624258777  0.7476693675088643  1.0000
