data_image0
_chemical_formula_structural       Li2VBr6
_chemical_formula_sum              "Li2 V1 Br6"
_cell_length_a       7.135675911246974
_cell_length_b       7.135675745860645
_cell_length_c       7.135675805722796
_cell_angle_alpha    60.000000626812735
_cell_angle_beta     59.9999999741141
_cell_angle_gamma    59.99999955838915

_space_group_name_H-M_alt    "P 1"
_space_group_IT_number       1

loop_
  _space_group_symop_operation_xyz
  'x, y, z'

loop_
  _atom_site_type_symbol
  _atom_site_label
  _atom_site_symmetry_multiplicity
  _atom_site_fract_x
  _atom_site_fract_y
  _atom_site_fract_z
  _atom_site_occupancy
  Li  Li1       1.0  0.2499999632661894  0.25000000567035874  0.2500000537041997  1.0000
  Li  Li2       1.0  0.7500000138284362  0.7500000187274427  0.7499999679084481  1.0000
  V   V1        1.0  3.491344310003446e-08  3.6043736808895094e-08  0.9999999336904131  1.0000
  Br  Br1       1.0  0.24401477715228728  0.2440147501118253  0.7559852250724979  1.0000
  Br  Br2       1.0  0.7559852229085704  0.755985229660396  0.2440147541162834  1.0000
  Br  Br3       1.0  0.7559852583335805  0.24401472597722457  0.24401473405221158  1.0000
  Br  Br4       1.0  0.24401471116081083  0.7559852726750504  0.7559853098389527  1.0000
  Br  Br5       1.0  0.24401472256889212  0.7559852561318341  0.24401474795485356  1.0000
  Br  Br6       1.0  0.755985288264138  0.2440146961784926  0.7559852886281021  1.0000
