data_image0
_chemical_formula_structural       Li2WI6
_chemical_formula_sum              "Li2 W1 I6"
_cell_length_a       7.898739430578706
_cell_length_b       7.898739276663721
_cell_length_c       7.898739362842662
_cell_angle_alpha    60.00000039605582
_cell_angle_beta     59.99999900306658
_cell_angle_gamma    59.99999973316162

_space_group_name_H-M_alt    "P 1"
_space_group_IT_number       1

loop_
  _space_group_symop_operation_xyz
  'x, y, z'

loop_
  _atom_site_type_symbol
  _atom_site_label
  _atom_site_symmetry_multiplicity
  _atom_site_fract_x
  _atom_site_fract_y
  _atom_site_fract_z
  _atom_site_occupancy
  Li  Li1       1.0  0.25000001328617816  0.2500000131747633  0.250000004590605  1.0000
  Li  Li2       1.0  0.7499999824474891  0.7499999837042219  0.7499999855637096  1.0000
  W   W1        1.0  1.2004103275129608e-08  6.047173891780497e-08  0.9999999738902776  1.0000
  I   I1        1.0  0.2460430002508948  0.24604307026357194  0.7539570001239057  1.0000
  I   I2        1.0  0.753956910427725  0.7539569405704307  0.24604309141371497  1.0000
  I   I3        1.0  0.7539570103521164  0.2460430034183336  0.24604302767826378  1.0000
  I   I4        1.0  0.2460430880247967  0.7539569004272068  0.7539569171583547  1.0000
  I   I5        1.0  0.2460430858199202  0.7539569354758907  0.24604307731385214  1.0000
  I   I6        1.0  0.7539568967416163  0.2460430877625706  0.7539569252371621  1.0000
