data_image0
_chemical_formula_structural       Li2WBr6
_chemical_formula_sum              "Li2 W1 Br6"
_cell_length_a       7.291958459252875
_cell_length_b       7.291958489725042
_cell_length_c       7.291958512363979
_cell_angle_alpha    59.99999988522755
_cell_angle_beta     60.000000674352435
_cell_angle_gamma    59.99999991144131

_space_group_name_H-M_alt    "P 1"
_space_group_IT_number       1

loop_
  _space_group_symop_operation_xyz
  'x, y, z'

loop_
  _atom_site_type_symbol
  _atom_site_label
  _atom_site_symmetry_multiplicity
  _atom_site_fract_x
  _atom_site_fract_y
  _atom_site_fract_z
  _atom_site_occupancy
  Li  Li1       1.0  0.2500000004633841  0.24999994718476662  0.25000004074839643  1.0000
  Li  Li2       1.0  0.7499999838724819  0.7500000128717552  0.7500000494594178  1.0000
  W   W1        1.0  0.9999999170803098  3.0232492258884464e-08  3.594321417639934e-08  1.0000
  Br  Br1       1.0  0.24542197460925777  0.24542200539904574  0.7545780031186832  1.0000
  Br  Br2       1.0  0.7545780267912986  0.7545780839853591  0.24542196589476553  1.0000
  Br  Br3       1.0  0.7545780904427749  0.24542192110765018  0.24542194344209997  1.0000
  Br  Br4       1.0  0.2454219974946738  0.7545780036776313  0.7545779247223491  1.0000
  Br  Br5       1.0  0.24542195239173054  0.7545780441387078  0.24542199126761827  1.0000
  Br  Br6       1.0  0.7545780597752032  0.24542195118905474  0.754578045447063  1.0000
