data_image0
_chemical_formula_structural       Li2WF6
_chemical_formula_sum              "Li2 W1 F6"
_cell_length_a       5.706943624129369
_cell_length_b       5.706943562123057
_cell_length_c       5.706943900542185
_cell_angle_alpha    59.99999940493598
_cell_angle_beta     59.9999993493375
_cell_angle_gamma    60.00000123224714

_space_group_name_H-M_alt    "P 1"
_space_group_IT_number       1

loop_
  _space_group_symop_operation_xyz
  'x, y, z'

loop_
  _atom_site_type_symbol
  _atom_site_label
  _atom_site_symmetry_multiplicity
  _atom_site_fract_x
  _atom_site_fract_y
  _atom_site_fract_z
  _atom_site_occupancy
  Li  Li1       1.0  0.2500001348340539  0.24999996474045877  0.24999981962162277  1.0000
  Li  Li2       1.0  0.7499998916574002  0.7500000852207946  0.7499999930170698  1.0000
  W   W1        1.0  0.9999999481088873  0.9999999978539387  8.659513163564142e-08  1.0000
  F   F1        1.0  0.24812967809465167  0.2481294167130532  0.7518704813796255  1.0000
  F   F2        1.0  0.7518703483372408  0.7518705302372773  0.24812960182572372  1.0000
  F   F3        1.0  0.7518704773355487  0.24812950564848055  0.24812965370666923  1.0000
  F   F4        1.0  0.2481295487702531  0.7518703876503264  0.7518704670009946  1.0000
  F   F5        1.0  0.2481296225575621  0.7518704310172659  0.2481294535273495  1.0000
  F   F6        1.0  0.7518703621594078  0.2481296167979269  0.7518704809499406  1.0000
