data_image0
_chemical_formula_structural       Li2ZrBr6
_chemical_formula_sum              "Li2 Zr1 Br6"
_cell_length_a       7.410686711503493
_cell_length_b       7.41068691593261
_cell_length_c       7.410686773311877
_cell_angle_alpha    59.999999058855835
_cell_angle_beta     60.000000214362586
_cell_angle_gamma    59.99999963149995

_space_group_name_H-M_alt    "P 1"
_space_group_IT_number       1

loop_
  _space_group_symop_operation_xyz
  'x, y, z'

loop_
  _atom_site_type_symbol
  _atom_site_label
  _atom_site_symmetry_multiplicity
  _atom_site_fract_x
  _atom_site_fract_y
  _atom_site_fract_z
  _atom_site_occupancy
  Li  Li1       1.0  0.25000000612760864  0.25000000080326124  0.2499999814370734  1.0000
  Li  Li2       1.0  0.7499999950104875  0.7500000024097832  0.7499999951300648  1.0000
  Zr  Zr1       1.0  2.2238122273646232e-08  5.949626114724854e-08  0.999999910554314  1.0000
  Br  Br1       1.0  0.251014833055481  0.2510148632633807  0.7489851061497251  1.0000
  Br  Br2       1.0  0.7489850875473136  0.7489850870641  0.2510149006939759  1.0000
  Br  Br3       1.0  0.7489850720525607  0.25101495522125006  0.25101488938499184  1.0000
  Br  Br4       1.0  0.2510148502784282  0.7489851769003577  0.7489851093605078  1.0000
  Br  Br5       1.0  0.2510149035331791  0.7489850892218326  0.251014913704961  1.0000
  Br  Br6       1.0  0.7489852228893671  0.25101477186125337  0.748985198128778  1.0000
