data_image0
_chemical_formula_structural       Li2ZrF6
_chemical_formula_sum              "Li2 Zr1 F6"
_cell_length_a       5.766028989287819
_cell_length_b       5.766028592733565
_cell_length_c       5.766029234740601
_cell_angle_alpha    59.99999687492093
_cell_angle_beta     59.99999532370378
_cell_angle_gamma    59.99999768897959

_space_group_name_H-M_alt    "P 1"
_space_group_IT_number       1

loop_
  _space_group_symop_operation_xyz
  'x, y, z'

loop_
  _atom_site_type_symbol
  _atom_site_label
  _atom_site_symmetry_multiplicity
  _atom_site_fract_x
  _atom_site_fract_y
  _atom_site_fract_z
  _atom_site_occupancy
  Li  Li1       1.0  0.24999998440436533  0.25000007463230656  0.24999994847454296  1.0000
  Li  Li2       1.0  0.7500000785540701  0.749999811827316  0.7500000252081496  1.0000
  Zr  Zr1       1.0  0.9999999472245759  2.1240685606410045e-09  0.9999999784996938  1.0000
  F   F1        1.0  0.24754473699257373  0.247544847905082  0.752455172176039  1.0000
  F   F2        1.0  0.7524553173272567  0.752455106524787  0.2475448915072402  1.0000
  F   F3        1.0  0.7524552336589411  0.24754482863720367  0.24754479274733182  1.0000
  F   F4        1.0  0.2475448768549578  0.7524551194204541  0.7524551627788212  1.0000
  F   F5        1.0  0.24754478838170263  0.752455290536495  0.24754476608512185  1.0000
  F   F6        1.0  0.75245509019233  0.24754484868747298  0.7524552705281669  1.0000
