data_image0
_chemical_formula_structural       Li2ZrCl6
_chemical_formula_sum              "Li2 Zr1 Cl6"
_cell_length_a       6.92577216370651
_cell_length_b       6.925772402317086
_cell_length_c       6.925772291138026
_cell_angle_alpha    59.99999766055218
_cell_angle_beta     60.00000108212051
_cell_angle_gamma    59.999999755017505

_space_group_name_H-M_alt    "P 1"
_space_group_IT_number       1

loop_
  _space_group_symop_operation_xyz
  'x, y, z'

loop_
  _atom_site_type_symbol
  _atom_site_label
  _atom_site_symmetry_multiplicity
  _atom_site_fract_x
  _atom_site_fract_y
  _atom_site_fract_z
  _atom_site_occupancy
  Li  Li1       1.0  0.249999986829764  0.2499999846913965  0.24999993901231074  1.0000
  Li  Li2       1.0  0.7499999502314603  0.7500000548722664  0.7499999739103288  1.0000
  Zr  Zr1       1.0  4.356816733773502e-08  0.9999999593270886  2.8840203702254265e-09  1.0000
  Cl  Cl1       1.0  0.2511763444649453  0.2511763283914115  0.7488237001529445  1.0000
  Cl  Cl2       1.0  0.7488236230287096  0.7488236598890085  0.2511764007926252  1.0000
  Cl  Cl3       1.0  0.7488235724518981  0.25117641510333344  0.251176418012313  1.0000
  Cl  Cl4       1.0  0.2511764860499979  0.74882358025064  0.7488235458155402  1.0000
  Cl  Cl5       1.0  0.2511763390453474  0.7488237057270075  0.2511763404836269  1.0000
  Cl  Cl6       1.0  0.7488236621631779  0.25117632145793883  0.7488236620653052  1.0000
