data_image0
_chemical_formula_structural       Li2ZrI6
_chemical_formula_sum              "Li2 Zr1 I6"
_cell_length_a       8.076307721884676
_cell_length_b       8.076307660797923
_cell_length_c       8.076307664174712
_cell_angle_alpha    59.99999970734814
_cell_angle_beta     60.000000280397494
_cell_angle_gamma    59.99999978445213

_space_group_name_H-M_alt    "P 1"
_space_group_IT_number       1

loop_
  _space_group_symop_operation_xyz
  'x, y, z'

loop_
  _atom_site_type_symbol
  _atom_site_label
  _atom_site_symmetry_multiplicity
  _atom_site_fract_x
  _atom_site_fract_y
  _atom_site_fract_z
  _atom_site_occupancy
  Li  Li1       1.0  0.2499999905720011  0.2499999710148134  0.25000001107538183  1.0000
  Li  Li2       1.0  0.7500000061436541  0.7500000070653536  0.7499999826219483  1.0000
  Zr  Zr1       1.0  6.070971681905852e-10  0.999999968154207  0.9999999351370252  1.0000
  I   I1        1.0  0.250537684310688  0.2505376613072453  0.7494623200386036  1.0000
  I   I2        1.0  0.749462350314072  0.7494623531681139  0.25053764888847363  1.0000
  I   I3        1.0  0.7494623020198493  0.2505376803865771  0.25053768762226764  1.0000
  I   I4        1.0  0.25053762501275584  0.7494623780663059  0.7494623874034998  1.0000
  I   I5        1.0  0.25053769298202117  0.7494623236170412  0.2505376717850047  1.0000
  I   I6        1.0  0.7494623570527068  0.2505376574960581  0.7494623482166642  1.0000
