data_image0
_chemical_formula_structural       Mg2AuCl6
_chemical_formula_sum              "Mg2 Au1 Cl6"
_cell_length_a       6.785168708606915
_cell_length_b       6.785168583284419
_cell_length_c       6.785168655151706
_cell_angle_alpha    60.00000159768849
_cell_angle_beta     59.99999915925854
_cell_angle_gamma    59.99999977641854

_space_group_name_H-M_alt    "P 1"
_space_group_IT_number       1

loop_
  _space_group_symop_operation_xyz
  'x, y, z'

loop_
  _atom_site_type_symbol
  _atom_site_label
  _atom_site_symmetry_multiplicity
  _atom_site_fract_x
  _atom_site_fract_y
  _atom_site_fract_z
  _atom_site_occupancy
  Mg  Mg1       1.0  0.2499998752680422  0.2500000552324591  0.25000014134677034  1.0000
  Mg  Mg2       1.0  0.7499998672209984  0.7500000592004618  0.7500000529769698  1.0000
  Au  Au1       1.0  7.2201289794885356e-09  0.9999999783396127  2.7853366794646665e-08  1.0000
  Cl  Cl1       1.0  0.25606918160332603  0.2560690021053253  0.7439308544943031  1.0000
  Cl  Cl2       1.0  0.7439308942175392  0.7439309751451323  0.2560690368961739  1.0000
  Cl  Cl3       1.0  0.7439310366983508  0.2560690448591251  0.25606897007341367  1.0000
  Cl  Cl4       1.0  0.2560690975353219  0.7439308439447502  0.7439309908646495  1.0000
  Cl  Cl5       1.0  0.256069028589686  0.7439309087569831  0.2560690902671232  1.0000
  Cl  Cl6       1.0  0.7439310166665721  0.2560691244494772  0.7439308252727248  1.0000
