data_image0
_chemical_formula_structural       Mg2AgCl6
_chemical_formula_sum              "Mg2 Ag1 Cl6"
_cell_length_a       6.717617366530217
_cell_length_b       6.717617274750609
_cell_length_c       6.71761735957142
_cell_angle_alpha    60.00000002738457
_cell_angle_beta     59.99999961028877
_cell_angle_gamma    60.0000001793379

_space_group_name_H-M_alt    "P 1"
_space_group_IT_number       1

loop_
  _space_group_symop_operation_xyz
  'x, y, z'

loop_
  _atom_site_type_symbol
  _atom_site_label
  _atom_site_symmetry_multiplicity
  _atom_site_fract_x
  _atom_site_fract_y
  _atom_site_fract_z
  _atom_site_occupancy
  Mg  Mg1       1.0  0.24999999760227265  0.2500000455798334  0.24999997103758081  1.0000
  Mg  Mg2       1.0  0.7499999992326846  0.7500000401107769  0.7499999522596783  1.0000
  Ag  Ag1       1.0  4.444744105352137e-09  7.2927338419946865e-09  0.9999999911540149  1.0000
  Cl  Cl1       1.0  0.25761946433184696  0.2576194407391069  0.7423805684101087  1.0000
  Cl  Cl2       1.0  0.7423805548162791  0.7423805264445792  0.2576194655061956  1.0000
  Cl  Cl3       1.0  0.742380539233942  0.2576194033500647  0.2576194966567057  1.0000
  Cl  Cl4       1.0  0.25761943947651916  0.7423805510713367  0.7423805385529817  1.0000
  Cl  Cl5       1.0  0.2576194958216628  0.7423805223243044  0.25761944121883157  1.0000
  Cl  Cl6       1.0  0.7423805128908211  0.25761948132305057  0.7423805618199829  1.0000
