data_image0
_chemical_formula_structural       Mg2AuF6
_chemical_formula_sum              "Mg2 Au1 F6"
_cell_length_a       5.400749702061623
_cell_length_b       5.400750202798513
_cell_length_c       5.400749325753857
_cell_angle_alpha    60.000003626502654
_cell_angle_beta     60.000002810570166
_cell_angle_gamma    60.000003543514765

_space_group_name_H-M_alt    "P 1"
_space_group_IT_number       1

loop_
  _space_group_symop_operation_xyz
  'x, y, z'

loop_
  _atom_site_type_symbol
  _atom_site_label
  _atom_site_symmetry_multiplicity
  _atom_site_fract_x
  _atom_site_fract_y
  _atom_site_fract_z
  _atom_site_occupancy
  Mg  Mg1       1.0  0.24999995291722138  0.2500001716546108  0.24999994594862124  1.0000
  Mg  Mg2       1.0  0.7500000078217485  0.7499997983608677  0.7500001012447697  1.0000
  Au  Au1       1.0  0.9999999700007235  1.1565427701639089e-07  0.9999999127342201  1.0000
  F   F1        1.0  0.2720159974018342  0.2720161336549015  0.7279839364124191  1.0000
  F   F2        1.0  0.7279839985832822  0.7279837819350355  0.27201610740950577  1.0000
  F   F3        1.0  0.7279838819223158  0.2720162279064808  0.27201604029005955  1.0000
  F   F4        1.0  0.27201611097240863  0.7279838124086541  0.7279840278878269  1.0000
  F   F5        1.0  0.2720161602288203  0.7279837474668113  0.27201604101968635  1.0000
  F   F6        1.0  0.727983900501385  0.27201621121001374  0.7279839007447821  1.0000
