data_image0
_chemical_formula_structural       Mg2AgBr6
_chemical_formula_sum              "Mg2 Ag1 Br6"
_cell_length_a       7.058820298353806
_cell_length_b       7.058820221283664
_cell_length_c       7.058820314446871
_cell_angle_alpha    59.99999919376623
_cell_angle_beta     59.99999836884035
_cell_angle_gamma    59.99999920531075

_space_group_name_H-M_alt    "P 1"
_space_group_IT_number       1

loop_
  _space_group_symop_operation_xyz
  'x, y, z'

loop_
  _atom_site_type_symbol
  _atom_site_label
  _atom_site_symmetry_multiplicity
  _atom_site_fract_x
  _atom_site_fract_y
  _atom_site_fract_z
  _atom_site_occupancy
  Mg  Mg1       1.0  0.24999998318658787  0.25000001452037723  0.24999999790208904  1.0000
  Mg  Mg2       1.0  0.749999939282706  0.7500000105950666  0.750000084744527  1.0000
  Ag  Ag1       1.0  3.367477619512946e-08  6.940224225272113e-09  0.9999999527758204  1.0000
  Br  Br1       1.0  0.2578705848201329  0.2578705315664029  0.7421294360077902  1.0000
  Br  Br2       1.0  0.7421294274381873  0.7421294744634243  0.25787056170376393  1.0000
  Br  Br3       1.0  0.7421294181259827  0.257870564457839  0.2578705061867727  1.0000
  Br  Br4       1.0  0.2578705535343634  0.7421294259564835  0.7421294813815041  1.0000
  Br  Br5       1.0  0.25787056782553397  0.7421294598399842  0.2578705574034918  1.0000
  Br  Br6       1.0  0.7421294968954903  0.25787051148872164  0.7421294200939321  1.0000
