data_image0
_chemical_formula_structural       Mg2AgI6
_chemical_formula_sum              "Mg2 Ag1 I6"
_cell_length_a       7.591796077078978
_cell_length_b       7.5917960185196565
_cell_length_c       7.591795964777966
_cell_angle_alpha    59.99999995995027
_cell_angle_beta     60.00000055619685
_cell_angle_gamma    59.999999753624714

_space_group_name_H-M_alt    "P 1"
_space_group_IT_number       1

loop_
  _space_group_symop_operation_xyz
  'x, y, z'

loop_
  _atom_site_type_symbol
  _atom_site_label
  _atom_site_symmetry_multiplicity
  _atom_site_fract_x
  _atom_site_fract_y
  _atom_site_fract_z
  _atom_site_occupancy
  Mg  Mg1       1.0  0.2499999817053185  0.2500000012208612  0.24999999992719923  1.0000
  Mg  Mg2       1.0  0.750000037281837  0.7499999826903608  0.7499999984322641  1.0000
  Ag  Ag1       1.0  2.352121550088268e-08  1.6132478616765216e-08  0.9999999867592098  1.0000
  I   I1        1.0  0.2594085467702943  0.259408533687935  0.7405914521489626  1.0000
  I   I2        1.0  0.7405914483265928  0.7405914534497829  0.2594085446874846  1.0000
  I   I3        1.0  0.7405914620900856  0.25940855442442173  0.25940852768178785  1.0000
  I   I4        1.0  0.25940852404959014  0.7405914504590227  0.7405914792497269  1.0000
  I   I5        1.0  0.25940850671636606  0.7405914649823976  0.259408560704189  1.0000
  I   I6        1.0  0.7405914681464046  0.2594085463540384  0.7405914486392824  1.0000
