data_image0
_chemical_formula_structural       Mg2AuBr6
_chemical_formula_sum              "Mg2 Au1 Br6"
_cell_length_a       7.070543664251284
_cell_length_b       7.070543792008216
_cell_length_c       7.0705438034698505
_cell_angle_alpha    59.99999889417743
_cell_angle_beta     59.999999355706905
_cell_angle_gamma    59.999998475201586

_space_group_name_H-M_alt    "P 1"
_space_group_IT_number       1

loop_
  _space_group_symop_operation_xyz
  'x, y, z'

loop_
  _atom_site_type_symbol
  _atom_site_label
  _atom_site_symmetry_multiplicity
  _atom_site_fract_x
  _atom_site_fract_y
  _atom_site_fract_z
  _atom_site_occupancy
  Mg  Mg1       1.0  0.24999999783253432  0.25000001707862357  0.2499999860814053  1.0000
  Mg  Mg2       1.0  0.7500000000470574  0.7500000217888236  0.7500000206084739  1.0000
  Au  Au1       1.0  0.9999999825140715  3.4643584768776154e-09  1.9739650319478273e-08  1.0000
  Br  Br1       1.0  0.2581307810549238  0.25813073370614364  0.7418692485757197  1.0000
  Br  Br2       1.0  0.7418692188710391  0.741869254928107  0.2581307595784787  1.0000
  Br  Br3       1.0  0.7418692840476966  0.2581307371466929  0.25813072938001974  1.0000
  Br  Br4       1.0  0.2581307391381257  0.7418692307014074  0.7418692506652754  1.0000
  Br  Br5       1.0  0.2581307302474346  0.7418692572704626  0.25813073244559814  1.0000
  Br  Br6       1.0  0.7418692683256122  0.25813074522122165  0.7418692609704309  1.0000
