data_image0
_chemical_formula_structural       Mg2AuI6
_chemical_formula_sum              "Mg2 Au1 I6"
_cell_length_a       7.643275873453185
_cell_length_b       7.64327590396209
_cell_length_c       7.643275842039889
_cell_angle_alpha    59.99999979638222
_cell_angle_beta     60.00000032091052
_cell_angle_gamma    59.999999456393404

_space_group_name_H-M_alt    "P 1"
_space_group_IT_number       1

loop_
  _space_group_symop_operation_xyz
  'x, y, z'

loop_
  _atom_site_type_symbol
  _atom_site_label
  _atom_site_symmetry_multiplicity
  _atom_site_fract_x
  _atom_site_fract_y
  _atom_site_fract_z
  _atom_site_occupancy
  Mg  Mg1       1.0  0.2500000083962293  0.25000000117034765  0.24999998930830408  1.0000
  Mg  Mg2       1.0  0.7500000045881741  0.7499999746681643  0.7500000214300786  1.0000
  Au  Au1       1.0  0.9999999656038155  8.01191063653649e-09  5.6367341632596476e-08  1.0000
  I   I1        1.0  0.2614174902741979  0.26141751720450157  0.7385824967357619  1.0000
  I   I2        1.0  0.7385825069613092  0.7385824922840355  0.2614175011270376  1.0000
  I   I3        1.0  0.7385825283018373  0.26141748676767484  0.2614174777219334  1.0000
  I   I4        1.0  0.2614175232444043  0.738582500287512  0.7385824767270436  1.0000
  I   I5        1.0  0.26141748574584933  0.7385825240030536  0.2614174858645721  1.0000
  I   I6        1.0  0.7385824809999251  0.2614174999069231  0.7385824977906017  1.0000
