data_image0
_chemical_formula_structural       Mg2BeI6
_chemical_formula_sum              "Mg2 Be1 I6"
_cell_length_a       7.448680485529226
_cell_length_b       7.448680541813193
_cell_length_c       7.448680605151369
_cell_angle_alpha    59.999999989022555
_cell_angle_beta     59.99999961506424
_cell_angle_gamma    59.99999963981262

_space_group_name_H-M_alt    "P 1"
_space_group_IT_number       1

loop_
  _space_group_symop_operation_xyz
  'x, y, z'

loop_
  _atom_site_type_symbol
  _atom_site_label
  _atom_site_symmetry_multiplicity
  _atom_site_fract_x
  _atom_site_fract_y
  _atom_site_fract_z
  _atom_site_occupancy
  Mg  Mg1       1.0  0.25000003686308314  0.25000004968492157  0.24999990883664694  1.0000
  Mg  Mg2       1.0  0.7500000809204908  0.749999889264204  0.7500000309994368  1.0000
  Be  Be1       1.0  0.9999999762766978  2.4663660960905627e-08  0.9999999941597421  1.0000
  I   I1        1.0  0.2452249684448634  0.24522504454605543  0.7547749909000324  1.0000
  I   I2        1.0  0.7547750082374978  0.7547749503073689  0.24522500898726385  1.0000
  I   I3        1.0  0.7547750032270519  0.24522504643872803  0.24522499476441326  1.0000
  I   I4        1.0  0.24522499935480277  0.7547749451262081  0.7547750179827335  1.0000
  I   I5        1.0  0.24522497803110888  0.7547749882411046  0.24522505573398679  1.0000
  I   I6        1.0  0.7547749494663679  0.24522506580510614  0.7547749941926635  1.0000
