data_image0
_chemical_formula_structural       Mg2BeBr6
_chemical_formula_sum              "Mg2 Be1 Br6"
_cell_length_a       6.7725930036243644
_cell_length_b       6.772593102054187
_cell_length_c       6.772592834553139
_cell_angle_alpha    60.00000198397344
_cell_angle_beta     60.00000026962039
_cell_angle_gamma    59.99999982857118

_space_group_name_H-M_alt    "P 1"
_space_group_IT_number       1

loop_
  _space_group_symop_operation_xyz
  'x, y, z'

loop_
  _atom_site_type_symbol
  _atom_site_label
  _atom_site_symmetry_multiplicity
  _atom_site_fract_x
  _atom_site_fract_y
  _atom_site_fract_z
  _atom_site_occupancy
  Mg  Mg1       1.0  0.2500000876583139  0.24999990068573985  0.24999997988142045  1.0000
  Mg  Mg2       1.0  0.749999962467362  0.749999933530367  0.7500000051688067  1.0000
  Be  Be1       1.0  0.9999999704985506  2.7125759339790754e-08  1.1878452744207959e-09  1.0000
  Br  Br1       1.0  0.24532634665659142  0.24532628207289134  0.7546736497507746  1.0000
  Br  Br2       1.0  0.75467362465964  0.754673691388779  0.24532633608872115  1.0000
  Br  Br3       1.0  0.7546736046886366  0.2453264231210831  0.24532632274849406  1.0000
  Br  Br4       1.0  0.24532632934000284  0.7546736877777669  0.7546736957024135  1.0000
  Br  Br5       1.0  0.24532637579079325  0.7546736592869051  0.24532636372962827  1.0000
  Br  Br6       1.0  0.7546736919664938  0.2453263828933539  0.7546736473174195  1.0000
