data_image0
_chemical_formula_structural       Mg2CoCl6
_chemical_formula_sum              "Mg2 Co1 Cl6"
_cell_length_a       6.546118213067196
_cell_length_b       6.546118166633378
_cell_length_c       6.546118182300858
_cell_angle_alpha    60.00000142037358
_cell_angle_beta     60.000000970559476
_cell_angle_gamma    59.999999386380615

_space_group_name_H-M_alt    "P 1"
_space_group_IT_number       1

loop_
  _space_group_symop_operation_xyz
  'x, y, z'

loop_
  _atom_site_type_symbol
  _atom_site_label
  _atom_site_symmetry_multiplicity
  _atom_site_fract_x
  _atom_site_fract_y
  _atom_site_fract_z
  _atom_site_occupancy
  Mg  Mg1       1.0  0.25000004580319074  0.2500000578745543  0.24999995083097315  1.0000
  Mg  Mg2       1.0  0.7499998540409141  0.7499999865288389  0.7500001549400639  1.0000
  Co  Co1       1.0  9.727670286528214e-09  4.490275833569833e-08  0.9999999344942139  1.0000
  Cl  Cl1       1.0  0.2432217364354279  0.2432217015975742  0.7567782787761614  1.0000
  Cl  Cl2       1.0  0.7567782648647418  0.7567782024846943  0.24322175171478527  1.0000
  Cl  Cl3       1.0  0.7567783666811428  0.24322170128346446  0.24322158577312802  1.0000
  Cl  Cl4       1.0  0.24322166244773782  0.7567783468618215  0.756778320581384  1.0000
  Cl  Cl5       1.0  0.2432217048548775  0.7567782704884275  0.24322170042809085  1.0000
  Cl  Cl6       1.0  0.7567783419685499  0.24322168223849663  0.7567783272799639  1.0000
