data_image0
_chemical_formula_structural       Mg2CrF6
_chemical_formula_sum              "Mg2 Cr1 F6"
_cell_length_a       5.079356620486018
_cell_length_b       5.0793566290845735
_cell_length_c       5.079356635933438
_cell_angle_alpha    59.99999985269088
_cell_angle_beta     59.9999999203902
_cell_angle_gamma    60.000000087182904

_space_group_name_H-M_alt    "P 1"
_space_group_IT_number       1

loop_
  _space_group_symop_operation_xyz
  'x, y, z'

loop_
  _atom_site_type_symbol
  _atom_site_label
  _atom_site_symmetry_multiplicity
  _atom_site_fract_x
  _atom_site_fract_y
  _atom_site_fract_z
  _atom_site_occupancy
  Mg  Mg1       1.0  0.24999996298504173  0.2500000409266228  0.2500000160088644  1.0000
  Mg  Mg2       1.0  0.7500000154140708  0.7499999684617579  0.7500000147060975  1.0000
  Cr  Cr1       1.0  3.423770708444475e-08  0.9999999927663386  1.602927626710953e-08  1.0000
  F   F1        1.0  0.26010632986603277  0.26010631650953453  0.7398936695771822  1.0000
  F   F2        1.0  0.7398936663296035  0.7398936735890822  0.26010634219686674  1.0000
  F   F3        1.0  0.7398936929961393  0.26010633206986417  0.26010628365764665  1.0000
  F   F4        1.0  0.2601062780314118  0.7398937062531623  0.7398936693381614  1.0000
  F   F5        1.0  0.2601063293752178  0.7398936610366466  0.2601062926611752  1.0000
  F   F6        1.0  0.7398936876940025  0.2601063073609861  0.7398936978702879  1.0000
