data_image0
_chemical_formula_structural       Mg2CBr6
_chemical_formula_sum              "Mg2 C1 Br6"
_cell_length_a       6.965359888909441
_cell_length_b       6.965359697428102
_cell_length_c       6.965359889766531
_cell_angle_alpha    59.999999046709455
_cell_angle_beta     59.99999974100999
_cell_angle_gamma    59.999999262233864

_space_group_name_H-M_alt    "P 1"
_space_group_IT_number       1

loop_
  _space_group_symop_operation_xyz
  'x, y, z'

loop_
  _atom_site_type_symbol
  _atom_site_label
  _atom_site_symmetry_multiplicity
  _atom_site_fract_x
  _atom_site_fract_y
  _atom_site_fract_z
  _atom_site_occupancy
  Mg  Mg1       1.0  0.2500000895407061  0.2500000385629827  0.24999998206747137  1.0000
  Mg  Mg2       1.0  0.7499999689526421  0.7499999504052802  0.750000119816271  1.0000
  C   C1        1.0  1.4620321163613207e-07  0.9999999542832414  0.9999999440140692  1.0000
  Br  Br1       1.0  0.2511691584806286  0.2511692080085522  0.7488308205364386  1.0000
  Br  Br2       1.0  0.748830725828441  0.748830816126448  0.2511691900603633  1.0000
  Br  Br3       1.0  0.7488306744976111  0.25116924262520557  0.25116919597310944  1.0000
  Br  Br4       1.0  0.2511692581053344  0.7488307410680461  0.7488307547062647  1.0000
  Br  Br5       1.0  0.25116927984743054  0.7488307443301023  0.25116912746224174  1.0000
  Br  Br6       1.0  0.7488307009976287  0.2511692885965823  0.7488308548772149  1.0000
