data_image0
_chemical_formula_structural       Mg2CuF6
_chemical_formula_sum              "Mg2 Cu1 F6"
_cell_length_a       5.1395844175445715
_cell_length_b       5.139584350048709
_cell_length_c       5.1395844753076725
_cell_angle_alpha    60.00000020705109
_cell_angle_beta     59.99999984042897
_cell_angle_gamma    60.00000009771112

_space_group_name_H-M_alt    "P 1"
_space_group_IT_number       1

loop_
  _space_group_symop_operation_xyz
  'x, y, z'

loop_
  _atom_site_type_symbol
  _atom_site_label
  _atom_site_symmetry_multiplicity
  _atom_site_fract_x
  _atom_site_fract_y
  _atom_site_fract_z
  _atom_site_occupancy
  Mg  Mg1       1.0  0.24999995917038112  0.2500000121658448  0.2499999801357573  1.0000
  Mg  Mg2       1.0  0.7500000255428875  0.7500000102849226  0.7499999651077393  1.0000
  Cu  Cu1       1.0  7.534363868851015e-09  0.9999999976170352  0.9999999915872527  1.0000
  F   F1        1.0  0.2601413505704859  0.26014132483100444  0.7398586636758234  1.0000
  F   F2        1.0  0.7398587091009518  0.7398586547263974  0.26014135698235263  1.0000
  F   F3        1.0  0.7398587259354424  0.26014132117949285  0.26014130792690926  1.0000
  F   F4        1.0  0.2601412971076828  0.739858694122381  0.7398586976077265  1.0000
  F   F5        1.0  0.26014134526665506  0.7398586341886092  0.2601413290954368  1.0000
  F   F6        1.0  0.739858594536381  0.26014134775175657  0.7398586899892976  1.0000
