data_image0
_chemical_formula_structural       Mg2CoI6
_chemical_formula_sum              "Mg2 Co1 I6"
_cell_length_a       7.480012223622917
_cell_length_b       7.480012303178563
_cell_length_c       7.480012256386258
_cell_angle_alpha    60.00000015240294
_cell_angle_beta     59.99999979132588
_cell_angle_gamma    59.99999989820236

_space_group_name_H-M_alt    "P 1"
_space_group_IT_number       1

loop_
  _space_group_symop_operation_xyz
  'x, y, z'

loop_
  _atom_site_type_symbol
  _atom_site_label
  _atom_site_symmetry_multiplicity
  _atom_site_fract_x
  _atom_site_fract_y
  _atom_site_fract_z
  _atom_site_occupancy
  Mg  Mg1       1.0  0.25000001176826253  0.25000001185214915  0.24999996013299672  1.0000
  Mg  Mg2       1.0  0.7499999838646133  0.7499999536886097  0.750000063362966  1.0000
  Co  Co1       1.0  6.174859118829072e-09  0.0  0.9999999969125705  1.0000
  I   I1        1.0  0.2490834194377449  0.24908341280480714  0.750916589486711  1.0000
  I   I2        1.0  0.7509165733564945  0.7509165936698707  0.24908342030919514  1.0000
  I   I3        1.0  0.7509165712162442  0.2490834389189871  0.24908338603790717  1.0000
  I   I4        1.0  0.24908342348021167  0.7509165757424745  0.750916599996952  1.0000
  I   I5        1.0  0.24908343162943813  0.7509165939426801  0.24908339038660665  1.0000
  I   I6        1.0  0.7509165785041654  0.24908342071878153  0.7509165946141598  1.0000
