data_image0
_chemical_formula_structural       Mg2CuI6
_chemical_formula_sum              "Mg2 Cu1 I6"
_cell_length_a       7.467547432762503
_cell_length_b       7.467547431209101
_cell_length_c       7.467547395944917
_cell_angle_alpha    60.000000203632894
_cell_angle_beta     60.00000042178925
_cell_angle_gamma    60.000000620007796

_space_group_name_H-M_alt    "P 1"
_space_group_IT_number       1

loop_
  _space_group_symop_operation_xyz
  'x, y, z'

loop_
  _atom_site_type_symbol
  _atom_site_label
  _atom_site_symmetry_multiplicity
  _atom_site_fract_x
  _atom_site_fract_y
  _atom_site_fract_z
  _atom_site_occupancy
  Mg  Mg1       1.0  0.25000000973486836  0.2499999876688609  0.2500000142001637  1.0000
  Mg  Mg2       1.0  0.749999986610549  0.7500000072890083  0.7499999801564294  1.0000
  Cu  Cu1       1.0  0.9999999911590561  3.1161706904589005e-08  1.160479037542709e-08  1.0000
  I   I1        1.0  0.25364836038575017  0.253648370596777  0.7463516195690361  1.0000
  I   I2        1.0  0.7463516282443029  0.7463515964795647  0.25364837919472566  1.0000
  I   I3        1.0  0.7463516097910192  0.253648386346768  0.2536483797949571  1.0000
  I   I4        1.0  0.25364836232824406  0.7463516627340658  0.7463516143436362  1.0000
  I   I5        1.0  0.2536484071272451  0.7463515940670735  0.2536483831756259  1.0000
  I   I6        1.0  0.7463516466346486  0.25364836316872946  0.7463516133859124  1.0000
