data_image0
_chemical_formula_structural       Mg2CdBr6
_chemical_formula_sum              "Mg2 Cd1 Br6"
_cell_length_a       7.120230640838208
_cell_length_b       7.120230603216883
_cell_length_c       7.120230640704804
_cell_angle_alpha    60.00000186827913
_cell_angle_beta     60.000000948612325
_cell_angle_gamma    60.00000012130574

_space_group_name_H-M_alt    "P 1"
_space_group_IT_number       1

loop_
  _space_group_symop_operation_xyz
  'x, y, z'

loop_
  _atom_site_type_symbol
  _atom_site_label
  _atom_site_symmetry_multiplicity
  _atom_site_fract_x
  _atom_site_fract_y
  _atom_site_fract_z
  _atom_site_occupancy
  Mg  Mg1       1.0  0.24999995599022193  0.25000000917911624  0.2499999963313621  1.0000
  Mg  Mg2       1.0  0.7500000256061783  0.7499999535734115  0.7500000131673964  1.0000
  Cd  Cd1       1.0  0.9999999949380989  1.0320548848242732e-08  0.9999999706861474  1.0000
  Br  Br1       1.0  0.2612014134339963  0.2612014046956811  0.738798606570525  1.0000
  Br  Br2       1.0  0.7387985840675833  0.7387986027792279  0.26120141755681875  1.0000
  Br  Br3       1.0  0.7387986378387849  0.2612014089991388  0.2612013856212311  1.0000
  Br  Br4       1.0  0.2612014074627245  0.7387985864351289  0.7387986164131221  1.0000
  Br  Br5       1.0  0.26120140532756414  0.7387986132097973  0.26120137141954186  1.0000
  Br  Br6       1.0  0.7387985875871041  0.2612014080258436  0.7387986172230161  1.0000
