data_image0
_chemical_formula_structural       Mg2CoF6
_chemical_formula_sum              "Mg2 Co1 F6"
_cell_length_a       5.087460446844298
_cell_length_b       5.087460353007427
_cell_length_c       5.087460376653967
_cell_angle_alpha    60.00000115965934
_cell_angle_beta     60.00000050533668
_cell_angle_gamma    59.99999996278997

_space_group_name_H-M_alt    "P 1"
_space_group_IT_number       1

loop_
  _space_group_symop_operation_xyz
  'x, y, z'

loop_
  _atom_site_type_symbol
  _atom_site_label
  _atom_site_symmetry_multiplicity
  _atom_site_fract_x
  _atom_site_fract_y
  _atom_site_fract_z
  _atom_site_occupancy
  Mg  Mg1       1.0  0.25000001296733143  0.25000007002462654  0.24999991226644627  1.0000
  Mg  Mg2       1.0  0.7500000026576726  0.7500000872975185  0.7499999263842462  1.0000
  Co  Co1       1.0  1.109675813799902e-08  0.9999999735188237  1.7520295162738857e-08  1.0000
  F   F1        1.0  0.2547350830431385  0.2547351355695984  0.7452648821803883  1.0000
  F   F2        1.0  0.7452648863658521  0.7452648267547954  0.25473517535804835  1.0000
  F   F3        1.0  0.7452648747137837  0.2547350479091422  0.25473514618664084  1.0000
  F   F4        1.0  0.25473513557341687  0.7452648734897963  0.7452648583037519  1.0000
  F   F5        1.0  0.25473514665327246  0.7452649144245238  0.2547350836124368  1.0000
  F   F6        1.0  0.7452648482495092  0.25473505993676865  0.7452649807136797  1.0000
