data_image0
_chemical_formula_structural       Mg2CI6
_chemical_formula_sum              "Mg2 C1 I6"
_cell_length_a       7.46133126581643
_cell_length_b       7.461331384941835
_cell_length_c       7.461331412717846
_cell_angle_alpha    59.99999974560511
_cell_angle_beta     59.99999963135427
_cell_angle_gamma    59.99999967001112

_space_group_name_H-M_alt    "P 1"
_space_group_IT_number       1

loop_
  _space_group_symop_operation_xyz
  'x, y, z'

loop_
  _atom_site_type_symbol
  _atom_site_label
  _atom_site_symmetry_multiplicity
  _atom_site_fract_x
  _atom_site_fract_y
  _atom_site_fract_z
  _atom_site_occupancy
  Mg  Mg1       1.0  0.24999999983135746  0.2500000159139241  0.25000002238673846  1.0000
  Mg  Mg2       1.0  0.7500000062020933  0.7499999394056629  0.7500000402401441  1.0000
  C   C1        1.0  3.1702607245947114e-08  0.9999999606050508  0.9999999904437373  1.0000
  I   I1        1.0  0.25263672167651824  0.2526367563168469  0.7473632488659184  1.0000
  I   I2        1.0  0.7473632567338057  0.7473632679439012  0.25263672877026483  1.0000
  I   I3        1.0  0.74736322611363  0.2526367448266084  0.25263675580498607  1.0000
  I   I4        1.0  0.25263673519554636  0.7473632564537528  0.7473632579548848  1.0000
  I   I5        1.0  0.2526367441819904  0.7473632856229849  0.25263673018609856  1.0000
  I   I6        1.0  0.7473632727139687  0.2526367763912558  0.7473632280939281  1.0000
