data_image0
_chemical_formula_structural       Mg2CF6
_chemical_formula_sum              "Mg2 C1 F6"
_cell_length_a       4.787817602465297
_cell_length_b       4.7878178419930375
_cell_length_c       4.787817569011276
_cell_angle_alpha    59.99999920689056
_cell_angle_beta     59.999998235052225
_cell_angle_gamma    60.000000686795694

_space_group_name_H-M_alt    "P 1"
_space_group_IT_number       1

loop_
  _space_group_symop_operation_xyz
  'x, y, z'

loop_
  _atom_site_type_symbol
  _atom_site_label
  _atom_site_symmetry_multiplicity
  _atom_site_fract_x
  _atom_site_fract_y
  _atom_site_fract_z
  _atom_site_occupancy
  Mg  Mg1       1.0  0.2499998747965418  0.24999989650663515  0.24999982051975805  1.0000
  Mg  Mg2       1.0  0.7499998435868106  0.7499999146277537  0.7500003254965857  1.0000
  C   C1        1.0  0.9999994390453876  0.9999995267618593  4.105760453039398e-07  1.0000
  F   F1        1.0  0.22098164964173467  0.2209815872791939  0.7790183091903671  1.0000
  F   F2        1.0  0.7790189361050205  0.779018986152312  0.22098102617295687  1.0000
  F   F3        1.0  0.7790187655622851  0.2209813592304477  0.22098127462325046  1.0000
  F   F4        1.0  0.22098134093666413  0.7790187563111746  0.7790187402609992  1.0000
  F   F5        1.0  0.22098136867141058  0.7790186923093666  0.22098132662334793  1.0000
  F   F6        1.0  0.7790187970763401  0.22098126719157177  0.7790187554545538  1.0000
