data_image0
_chemical_formula_structural       Mg2CdI6
_chemical_formula_sum              "Mg2 Cd1 I6"
_cell_length_a       7.757829541698506
_cell_length_b       7.757829451487323
_cell_length_c       7.757829486745359
_cell_angle_alpha    59.99999910196924
_cell_angle_beta     59.99999977981849
_cell_angle_gamma    59.99999899846572

_space_group_name_H-M_alt    "P 1"
_space_group_IT_number       1

loop_
  _space_group_symop_operation_xyz
  'x, y, z'

loop_
  _atom_site_type_symbol
  _atom_site_label
  _atom_site_symmetry_multiplicity
  _atom_site_fract_x
  _atom_site_fract_y
  _atom_site_fract_z
  _atom_site_occupancy
  Mg  Mg1       1.0  0.25000002292099316  0.24999997901362675  0.24999998214732744  1.0000
  Mg  Mg2       1.0  0.7499999961444682  0.749999998611002  0.7500000138391533  1.0000
  Cd  Cd1       1.0  4.786972232025572e-08  3.9468026683435794e-08  0.9999999666432878  1.0000
  I   I1        1.0  0.26246962501936744  0.26246963189288786  0.7375303682896944  1.0000
  I   I2        1.0  0.7375303154300387  0.7375303315232515  0.26246967410905875  1.0000
  I   I3        1.0  0.7375303627693712  0.26246964754333146  0.26246964939677875  1.0000
  I   I4        1.0  0.2624696378028802  0.73753036323444  0.7375303379707149  1.0000
  I   I5        1.0  0.2624696474932969  0.7375303585515457  0.26246965950123957  1.0000
  I   I6        1.0  0.7375303501020896  0.2624696522262257  0.7375303525570528  1.0000
