data_image0
_chemical_formula_structural       Mg2CrI6
_chemical_formula_sum              "Mg2 Cr1 I6"
_cell_length_a       7.591062538060897
_cell_length_b       7.591062625713713
_cell_length_c       7.5910626724086425
_cell_angle_alpha    59.999999689837516
_cell_angle_beta     60.00000000373112
_cell_angle_gamma    60.00000021145866

_space_group_name_H-M_alt    "P 1"
_space_group_IT_number       1

loop_
  _space_group_symop_operation_xyz
  'x, y, z'

loop_
  _atom_site_type_symbol
  _atom_site_label
  _atom_site_symmetry_multiplicity
  _atom_site_fract_x
  _atom_site_fract_y
  _atom_site_fract_z
  _atom_site_occupancy
  Mg  Mg1       1.0  0.24999999745826273  0.24999995397674235  0.2500000256941434  1.0000
  Mg  Mg2       1.0  0.749999948151152  0.7500000539252705  0.7499999900233401  1.0000
  Cr  Cr1       1.0  0.9999999895524538  0.9999999628917143  1.3831594287785716e-09  1.0000
  I   I1        1.0  0.24748574822108477  0.24748575941185602  0.7525142520380427  1.0000
  I   I2        1.0  0.7525142975826429  0.7525142855984426  0.24748571610556  1.0000
  I   I3        1.0  0.7525142332819719  0.24748575160052114  0.24748577454434617  1.0000
  I   I4        1.0  0.24748576575159453  0.7525142466210692  0.7525142403786911  1.0000
  I   I5        1.0  0.2474857616370725  0.7525142499696018  0.2474857493049597  1.0000
  I   I6        1.0  0.7525142579858224  0.24748573211795144  0.7525142488997072  1.0000
