data_image0
_chemical_formula_structural       Mg2CrCl6
_chemical_formula_sum              "Mg2 Cr1 Cl6"
_cell_length_a       6.7199456938442
_cell_length_b       6.719945544363293
_cell_length_c       6.719945674537836
_cell_angle_alpha    59.999998043004155
_cell_angle_beta     59.99999840413588
_cell_angle_gamma    59.999997285946776

_space_group_name_H-M_alt    "P 1"
_space_group_IT_number       1

loop_
  _space_group_symop_operation_xyz
  'x, y, z'

loop_
  _atom_site_type_symbol
  _atom_site_label
  _atom_site_symmetry_multiplicity
  _atom_site_fract_x
  _atom_site_fract_y
  _atom_site_fract_z
  _atom_site_occupancy
  Mg  Mg1       1.0  0.2500001412820689  0.2500001214575117  0.24999978746161583  1.0000
  Mg  Mg2       1.0  0.7500000157264634  0.7499999597660325  0.74999995922571  1.0000
  Cr  Cr1       1.0  0.9999999835464517  0.9999999617264114  7.200678710357523e-08  1.0000
  Cl  Cl1       1.0  0.24072536447754014  0.240725335125116  0.7592746738147811  1.0000
  Cl  Cl2       1.0  0.7592745690811463  0.7592746895993226  0.24072540332475395  1.0000
  Cl  Cl3       1.0  0.7592746492973991  0.24072529623256522  0.24072543332979093  1.0000
  Cl  Cl4       1.0  0.2407254157409996  0.7592745918004844  0.7592746523680113  1.0000
  Cl  Cl5       1.0  0.24072525314306117  0.7592746782391809  0.24072539871698942  1.0000
  Cl  Cl6       1.0  0.7592746055034881  0.24072537017843287  0.7592746266504495  1.0000
