data_image0
_chemical_formula_structural       Mg2CoBr6
_chemical_formula_sum              "Mg2 Co1 Br6"
_cell_length_a       6.929171467516088
_cell_length_b       6.929171656854567
_cell_length_c       6.929171497400149
_cell_angle_alpha    60.00000006764313
_cell_angle_beta     59.99999954907048
_cell_angle_gamma    59.99999990046317

_space_group_name_H-M_alt    "P 1"
_space_group_IT_number       1

loop_
  _space_group_symop_operation_xyz
  'x, y, z'

loop_
  _atom_site_type_symbol
  _atom_site_label
  _atom_site_symmetry_multiplicity
  _atom_site_fract_x
  _atom_site_fract_y
  _atom_site_fract_z
  _atom_site_occupancy
  Mg  Mg1       1.0  0.2500000094165721  0.24999997477041572  0.2500000033148851  1.0000
  Mg  Mg2       1.0  0.7500000499450679  0.7500000392000392  0.7499999719592364  1.0000
  Co  Co1       1.0  0.9999999571434652  3.358287794644908e-08  1.7625394149591376e-08  1.0000
  Br  Br1       1.0  0.24767734887664283  0.24767733011671722  0.7523226604464086  1.0000
  Br  Br2       1.0  0.7523226281568254  0.7523226608759798  0.24767735449211206  1.0000
  Br  Br3       1.0  0.7523226428268641  0.24767735540106278  0.24767734020477283  1.0000
  Br  Br4       1.0  0.24767734863267843  0.7523226073113162  0.7523226527973904  1.0000
  Br  Br5       1.0  0.24767734757461593  0.7523226601819086  0.24767735417533188  1.0000
  Br  Br6       1.0  0.7523226698402642  0.2476773396483875  0.7523226491422491  1.0000
