data_image0
_chemical_formula_structural       Mg2CdCl6
_chemical_formula_sum              "Mg2 Cd1 Cl6"
_cell_length_a       6.71551105787146
_cell_length_b       6.715511049894571
_cell_length_c       6.71551109071094
_cell_angle_alpha    59.999999449020564
_cell_angle_beta     59.9999988810224
_cell_angle_gamma    59.99999987447794

_space_group_name_H-M_alt    "P 1"
_space_group_IT_number       1

loop_
  _space_group_symop_operation_xyz
  'x, y, z'

loop_
  _atom_site_type_symbol
  _atom_site_label
  _atom_site_symmetry_multiplicity
  _atom_site_fract_x
  _atom_site_fract_y
  _atom_site_fract_z
  _atom_site_occupancy
  Mg  Mg1       1.0  0.2499999195950175  0.2500001434763939  0.24999997710986302  1.0000
  Mg  Mg2       1.0  0.7500000889113377  0.7499999197777036  0.7499999724522163  1.0000
  Cd  Cd1       1.0  1.5996588140482663e-08  0.9999999726436708  1.4614410115353052e-08  1.0000
  Cl  Cl1       1.0  0.2591893125582268  0.2591893276524757  0.7408106861628713  1.0000
  Cl  Cl2       1.0  0.7408107185812025  0.7408106006437309  0.2591893418979659  1.0000
  Cl  Cl3       1.0  0.7408106193093194  0.25918935338980015  0.25918935315726754  1.0000
  Cl  Cl4       1.0  0.2591893155913596  0.7408106624466596  0.7408106792528185  1.0000
  Cl  Cl5       1.0  0.2591893290908754  0.7408106462013055  0.2591893525820971  1.0000
  Cl  Cl6       1.0  0.7408106774189105  0.2591893714589097  0.7408106252424779  1.0000
