data_image0
_chemical_formula_structural       Mg2CrBr6
_chemical_formula_sum              "Mg2 Cr1 Br6"
_cell_length_a       7.0307565543740775
_cell_length_b       7.030756249310701
_cell_length_c       7.0307563933377315
_cell_angle_alpha    59.9999997358683
_cell_angle_beta     59.999999124545205
_cell_angle_gamma    60.00000034242403

_space_group_name_H-M_alt    "P 1"
_space_group_IT_number       1

loop_
  _space_group_symop_operation_xyz
  'x, y, z'

loop_
  _atom_site_type_symbol
  _atom_site_label
  _atom_site_symmetry_multiplicity
  _atom_site_fract_x
  _atom_site_fract_y
  _atom_site_fract_z
  _atom_site_occupancy
  Mg  Mg1       1.0  0.250000127421431  0.25000007777163763  0.2499998884613384  1.0000
  Mg  Mg2       1.0  0.7499999868579244  0.7500000399549381  0.7499999725680899  1.0000
  Cr  Cr1       1.0  2.3308954307696867e-08  0.999999954708476  6.7243181812870405e-09  1.0000
  Br  Br1       1.0  0.2451547767675111  0.2451547679898044  0.7548452319985692  1.0000
  Br  Br2       1.0  0.7548452157811787  0.7548451877324716  0.2451547950778178  1.0000
  Br  Br3       1.0  0.7548451751078378  0.24515474334005827  0.24515483875032346  1.0000
  Br  Br4       1.0  0.24515473694831194  0.7548452419959061  0.7548452948378485  1.0000
  Br  Br5       1.0  0.2451548180356831  0.7548451667819535  0.24515476793479826  1.0000
  Br  Br6       1.0  0.7548451355604048  0.24515482203797345  0.7548452165547586  1.0000
