data_image0
_chemical_formula_structural       Mg2FeF6
_chemical_formula_sum              "Mg2 Fe1 F6"
_cell_length_a       5.131088892904137
_cell_length_b       5.131088945097334
_cell_length_c       5.131088949095705
_cell_angle_alpha    60.00000006813388
_cell_angle_beta     60.0000000744241
_cell_angle_gamma    60.00000108116885

_space_group_name_H-M_alt    "P 1"
_space_group_IT_number       1

loop_
  _space_group_symop_operation_xyz
  'x, y, z'

loop_
  _atom_site_type_symbol
  _atom_site_label
  _atom_site_symmetry_multiplicity
  _atom_site_fract_x
  _atom_site_fract_y
  _atom_site_fract_z
  _atom_site_occupancy
  Mg  Mg1       1.0  0.24999997901303614  0.2500000235259604  0.250000010540091  1.0000
  Mg  Mg2       1.0  0.7500000042118586  0.7499999703276528  0.7500000013853154  1.0000
  Fe  Fe1       1.0  1.045235040089714e-09  2.3869102229907668e-08  0.9999999777983112  1.0000
  F   F1        1.0  0.2603335978776031  0.26033356157139426  0.7396664175978671  1.0000
  F   F2        1.0  0.7396664379255622  0.7396663893178355  0.26033357392936357  1.0000
  F   F3        1.0  0.7396664236642133  0.2603335926759129  0.26033358420725833  1.0000
  F   F4        1.0  0.2603335598102801  0.7396664274337127  0.7396664281076709  1.0000
  F   F5        1.0  0.2603335613126597  0.7396664301012869  0.2603336071220476  1.0000
  F   F6        1.0  0.7396664413467826  0.2603336067167105  0.7396663677571809  1.0000
