data_image0
_chemical_formula_structural       Mg2GeF6
_chemical_formula_sum              "Mg2 Ge1 F6"
_cell_length_a       5.1606154541418565
_cell_length_b       5.160615389983864
_cell_length_c       5.160615713503617
_cell_angle_alpha    59.999997966374565
_cell_angle_beta     59.999998523850394
_cell_angle_gamma    59.9999989365374

_space_group_name_H-M_alt    "P 1"
_space_group_IT_number       1

loop_
  _space_group_symop_operation_xyz
  'x, y, z'

loop_
  _atom_site_type_symbol
  _atom_site_label
  _atom_site_symmetry_multiplicity
  _atom_site_fract_x
  _atom_site_fract_y
  _atom_site_fract_z
  _atom_site_occupancy
  Mg  Mg1       1.0  0.2500000213901862  0.24999996945895783  0.2500000056328231  1.0000
  Mg  Mg2       1.0  0.7500000073714895  0.7500000317860596  0.7499999603403714  1.0000
  Ge  Ge1       1.0  2.3662673241358915e-08  4.983832538254353e-08  0.9999999865025401  1.0000
  F   F1        1.0  0.25397139853148165  0.25397142411292933  0.746028586495901  1.0000
  F   F2        1.0  0.7460285382435036  0.7460285510262984  0.2539714850296119  1.0000
  F   F3        1.0  0.7460285721142794  0.2539714311798636  0.25397143157531443  1.0000
  F   F4        1.0  0.25397143388824867  0.7460285510791251  0.746028561083728  1.0000
  F   F5        1.0  0.2539714127623071  0.7460285915470144  0.2539714033954256  1.0000
  F   F6        1.0  0.7460285821883252  0.2539713835922134  0.746028598349445  1.0000
