data_image0
_chemical_formula_structural       Mg2GeBr6
_chemical_formula_sum              "Mg2 Ge1 Br6"
_cell_length_a       7.115300065022892
_cell_length_b       7.115300022474548
_cell_length_c       7.1152999564409
_cell_angle_alpha    60.00000024816467
_cell_angle_beta     60.00000010099263
_cell_angle_gamma    59.99999931713826

_space_group_name_H-M_alt    "P 1"
_space_group_IT_number       1

loop_
  _space_group_symop_operation_xyz
  'x, y, z'

loop_
  _atom_site_type_symbol
  _atom_site_label
  _atom_site_symmetry_multiplicity
  _atom_site_fract_x
  _atom_site_fract_y
  _atom_site_fract_z
  _atom_site_occupancy
  Mg  Mg1       1.0  0.24999998138848578  0.2500000510475324  0.250000063267038  1.0000
  Mg  Mg2       1.0  0.7500000199834872  0.7499999500311402  0.7500000299857092  1.0000
  Ge  Ge1       1.0  6.8682441430507795e-09  8.606417561813682e-09  0.999999968370493  1.0000
  Br  Br1       1.0  0.24811394914699028  0.248113924083881  0.7518860588009803  1.0000
  Br  Br2       1.0  0.7518860331446507  0.7518860563393894  0.24811393345333113  1.0000
  Br  Br3       1.0  0.7518860303761409  0.24811400062819033  0.24811390035172837  1.0000
  Br  Br4       1.0  0.24811393240761978  0.75188603831872  0.7518860555296378  1.0000
  Br  Br5       1.0  0.2481139459785519  0.7518860086241683  0.24811396656899457  1.0000
  Br  Br6       1.0  0.7518860998007977  0.24811396147140044  0.7518860229974894  1.0000
