data_image0
_chemical_formula_structural       Mg2GeCl6
_chemical_formula_sum              "Mg2 Ge1 Cl6"
_cell_length_a       6.850270055835783
_cell_length_b       6.850270144616903
_cell_length_c       6.85026985110966
_cell_angle_alpha    60.00000202465111
_cell_angle_beta     60.000000657015406
_cell_angle_gamma    59.999999759269386

_space_group_name_H-M_alt    "P 1"
_space_group_IT_number       1

loop_
  _space_group_symop_operation_xyz
  'x, y, z'

loop_
  _atom_site_type_symbol
  _atom_site_label
  _atom_site_symmetry_multiplicity
  _atom_site_fract_x
  _atom_site_fract_y
  _atom_site_fract_z
  _atom_site_occupancy
  Mg  Mg1       1.0  0.24999996226390017  0.2499999579873467  0.24999999579051632  1.0000
  Mg  Mg2       1.0  0.7499999295428856  0.7500000187801725  0.7499999782550882  1.0000
  Ge  Ge1       1.0  0.9999999797724668  4.922675149534811e-16  2.6171527994835497e-08  1.0000
  Cl  Cl1       1.0  0.23899590988939423  0.23899579019643116  0.7610041575920794  1.0000
  Cl  Cl2       1.0  0.761004243189694  0.7610041865710842  0.23899576318659002  1.0000
  Cl  Cl3       1.0  0.7610043003259569  0.2389957948317604  0.23899576491894206  1.0000
  Cl  Cl4       1.0  0.2389957575575158  0.7610041944509043  0.7610042731093789  1.0000
  Cl  Cl5       1.0  0.23899573471758115  0.7610042277484015  0.23899584518747616  1.0000
  Cl  Cl6       1.0  0.7610041751870198  0.2389958312615145  0.7610041969315396  1.0000
