data_image0
_chemical_formula_structural       Mg2MnBr6
_chemical_formula_sum              "Mg2 Mn1 Br6"
_cell_length_a       7.035895131267924
_cell_length_b       7.035895251060241
_cell_length_c       7.035895277205052
_cell_angle_alpha    60.00000026200455
_cell_angle_beta     59.999999661875776
_cell_angle_gamma    59.99999926000074

_space_group_name_H-M_alt    "P 1"
_space_group_IT_number       1

loop_
  _space_group_symop_operation_xyz
  'x, y, z'

loop_
  _atom_site_type_symbol
  _atom_site_label
  _atom_site_symmetry_multiplicity
  _atom_site_fract_x
  _atom_site_fract_y
  _atom_site_fract_z
  _atom_site_occupancy
  Mg  Mg1       1.0  0.2500001456508301  0.24999980762722687  0.2500000533700455  1.0000
  Mg  Mg2       1.0  0.749999860894812  0.7500001122025929  0.7500000750528553  1.0000
  Mn  Mn1       1.0  3.051926609520957e-08  0.9999999773707781  1.7374226466672557e-08  1.0000
  Br  Br1       1.0  0.24206121853560658  0.24206105704775638  0.7579388724740733  1.0000
  Br  Br2       1.0  0.7579388221585835  0.7579389080405061  0.24206112244063846  1.0000
  Br  Br3       1.0  0.7579388705926663  0.24206111599734847  0.24206111524584306  1.0000
  Br  Br4       1.0  0.24206110914546397  0.7579389187192888  0.7579388241665149  1.0000
  Br  Br5       1.0  0.24206111450772883  0.7579389415165264  0.24206107072367147  1.0000
  Br  Br6       1.0  0.7579388312126357  0.2420611558656483  0.7579388515222344  1.0000
