data_image0
_chemical_formula_structural       Mg2MnI6
_chemical_formula_sum              "Mg2 Mn1 I6"
_cell_length_a       7.574626962300323
_cell_length_b       7.574626816837428
_cell_length_c       7.574626874659688
_cell_angle_alpha    59.99999963684462
_cell_angle_beta     60.00000017678703
_cell_angle_gamma    59.99999970519371

_space_group_name_H-M_alt    "P 1"
_space_group_IT_number       1

loop_
  _space_group_symop_operation_xyz
  'x, y, z'

loop_
  _atom_site_type_symbol
  _atom_site_label
  _atom_site_symmetry_multiplicity
  _atom_site_fract_x
  _atom_site_fract_y
  _atom_site_fract_z
  _atom_site_occupancy
  Mg  Mg1       1.0  0.24999999986195032  0.2499999978261921  0.2500000048708752  1.0000
  Mg  Mg2       1.0  0.7499999931499647  0.7499999579066755  0.7499999445229233  1.0000
  Mn  Mn1       1.0  3.925989987996016e-09  3.395499613579608e-08  6.951270876908736e-08  1.0000
  I   I1        1.0  0.2506571791972117  0.25065717390373415  0.7493428235548232  1.0000
  I   I2        1.0  0.7493428022189541  0.7493428303362709  0.2506572116788477  1.0000
  I   I3        1.0  0.7493428547585833  0.2506571426732784  0.25065719584498847  1.0000
  I   I4        1.0  0.2506572078541111  0.7493427871891161  0.7493427765703562  1.0000
  I   I5        1.0  0.25065714735442157  0.7493428391674067  0.2506571963784607  1.0000
  I   I6        1.0  0.7493428092692075  0.250657239450209  0.7493427757769588  1.0000
