data_image0
_chemical_formula_structural       Mg2NbCl6
_chemical_formula_sum              "Mg2 Nb1 Cl6"
_cell_length_a       7.062151778343996
_cell_length_b       7.062151885178048
_cell_length_c       7.062152340778441
_cell_angle_alpha    60.000002413570044
_cell_angle_beta     60.00000268738246
_cell_angle_gamma    60.00000474140522

_space_group_name_H-M_alt    "P 1"
_space_group_IT_number       1

loop_
  _space_group_symop_operation_xyz
  'x, y, z'

loop_
  _atom_site_type_symbol
  _atom_site_label
  _atom_site_symmetry_multiplicity
  _atom_site_fract_x
  _atom_site_fract_y
  _atom_site_fract_z
  _atom_site_occupancy
  Mg  Mg1       1.0  0.24999998927359451  0.2499999474887201  0.25000018756283  1.0000
  Mg  Mg2       1.0  0.7500001163414026  0.7500001424892269  0.749999808833072  1.0000
  Nb  Nb1       1.0  3.315816882728953e-10  0.9999999254277914  8.809627161530714e-08  1.0000
  Cl  Cl1       1.0  0.24221851462041646  0.242218500227243  0.7577813533568616  1.0000
  Cl  Cl2       1.0  0.7577814634262694  0.757781648714768  0.24221851308528758  1.0000
  Cl  Cl3       1.0  0.7577815790017863  0.2422184861548332  0.24221841883692546  1.0000
  Cl  Cl4       1.0  0.24221849355232694  0.7577813939803788  0.757781615466842  1.0000
  Cl  Cl5       1.0  0.24221839293866418  0.7577815147741997  0.24221859083002917  1.0000
  Cl  Cl6       1.0  0.7577814545049173  0.24221845207287393  0.7577814036411512  1.0000
