data_image0
_chemical_formula_structural       Mg2NbI6
_chemical_formula_sum              "Mg2 Nb1 I6"
_cell_length_a       7.881917445694471
_cell_length_b       7.8819174365943425
_cell_length_c       7.881917335629338
_cell_angle_alpha    59.99999953248217
_cell_angle_beta     60.00000000459067
_cell_angle_gamma    59.99999921956848

_space_group_name_H-M_alt    "P 1"
_space_group_IT_number       1

loop_
  _space_group_symop_operation_xyz
  'x, y, z'

loop_
  _atom_site_type_symbol
  _atom_site_label
  _atom_site_symmetry_multiplicity
  _atom_site_fract_x
  _atom_site_fract_y
  _atom_site_fract_z
  _atom_site_occupancy
  Mg  Mg1       1.0  0.25000000937750433  0.2500000226648154  0.2499999766331759  1.0000
  Mg  Mg2       1.0  0.7499999760450947  0.7499999825317797  0.7499999771062148  1.0000
  Nb  Nb1       1.0  2.1012701703060026e-08  2.486186673120026e-08  0.9999999618379936  1.0000
  I   I1        1.0  0.2498005088184102  0.24980051753649765  0.7501994924434424  1.0000
  I   I2        1.0  0.7501994818726114  0.7501994674598301  0.24980054234802695  1.0000
  I   I3        1.0  0.7501995125713227  0.2498004746805118  0.24980049966086165  1.0000
  I   I4        1.0  0.24980049743129443  0.7501994963310159  0.7501995210486684  1.0000
  I   I5        1.0  0.24980049489241957  0.7501995020758989  0.2498005147300078  1.0000
  I   I6        1.0  0.7501994991424422  0.24980051244389537  0.7501995125088958  1.0000
