data_image0
_chemical_formula_structural       Mg2NbBr6
_chemical_formula_sum              "Mg2 Nb1 Br6"
_cell_length_a       7.346562469011812
_cell_length_b       7.346561800938627
_cell_length_c       7.346562234089639
_cell_angle_alpha    59.99999890124695
_cell_angle_beta     60.00000015081031
_cell_angle_gamma    60.00000003360096

_space_group_name_H-M_alt    "P 1"
_space_group_IT_number       1

loop_
  _space_group_symop_operation_xyz
  'x, y, z'

loop_
  _atom_site_type_symbol
  _atom_site_label
  _atom_site_symmetry_multiplicity
  _atom_site_fract_x
  _atom_site_fract_y
  _atom_site_fract_z
  _atom_site_occupancy
  Mg  Mg1       1.0  0.2500000685852205  0.2499998183865549  0.250000039116403  1.0000
  Mg  Mg2       1.0  0.7500000238675097  0.7499999819630773  0.74999997075402  1.0000
  Nb  Nb1       1.0  0.9999999895996728  7.835367271577311e-08  0.99999998507986  1.0000
  Br  Br1       1.0  0.24702644910411362  0.24702650136325915  0.7529735132168276  1.0000
  Br  Br2       1.0  0.752973458654867  0.7529735607209777  0.24702647446734124  1.0000
  Br  Br3       1.0  0.7529734974089284  0.24702651654866215  0.2470264890735526  1.0000
  Br  Br4       1.0  0.24702653121731202  0.7529734988567944  0.7529735105188867  1.0000
  Br  Br5       1.0  0.2470265192490767  0.7529735439183717  0.2470264834436116  1.0000
  Br  Br6       1.0  0.7529734620174321  0.24702650983037042  0.7529735247405942  1.0000
