data_image0
_chemical_formula_structural       Mg2NiCl6
_chemical_formula_sum              "Mg2 Ni1 Cl6"
_cell_length_a       6.591068271009183
_cell_length_b       6.591068288064364
_cell_length_c       6.59106847212532
_cell_angle_alpha    60.000000075802184
_cell_angle_beta     59.9999991207018
_cell_angle_gamma    60.000000006313904

_space_group_name_H-M_alt    "P 1"
_space_group_IT_number       1

loop_
  _space_group_symop_operation_xyz
  'x, y, z'

loop_
  _atom_site_type_symbol
  _atom_site_label
  _atom_site_symmetry_multiplicity
  _atom_site_fract_x
  _atom_site_fract_y
  _atom_site_fract_z
  _atom_site_occupancy
  Mg  Mg1       1.0  0.2500000283039397  0.24999997888243006  0.24999996576003566  1.0000
  Mg  Mg2       1.0  0.7499999634252457  0.7500000908769535  0.749999920355885  1.0000
  Ni  Ni1       1.0  1.5873525860106862e-08  0.9999999944254337  0.9999999842300873  1.0000
  Cl  Cl1       1.0  0.24744661688977238  0.24744663976056927  0.7525533567756728  1.0000
  Cl  Cl2       1.0  0.7525532934041793  0.7525532906346621  0.24744675504749628  1.0000
  Cl  Cl3       1.0  0.7525534379206635  0.24744660956328046  0.24744665778342997  1.0000
  Cl  Cl4       1.0  0.24744666166837784  0.7525533468465925  0.7525532963171192  1.0000
  Cl  Cl5       1.0  0.2474466565311848  0.7525533655277117  0.2474466798839631  1.0000
  Cl  Cl6       1.0  0.7525533298542104  0.24744667821703156  0.7525533842520745  1.0000
