data_image0
_chemical_formula_structural       Mg2NbF6
_chemical_formula_sum              "Mg2 Nb1 F6"
_cell_length_a       5.286054561865611
_cell_length_b       5.286054992833357
_cell_length_c       5.286054600316388
_cell_angle_alpha    59.99999904528465
_cell_angle_beta     59.999998313446156
_cell_angle_gamma    60.0000002915443

_space_group_name_H-M_alt    "P 1"
_space_group_IT_number       1

loop_
  _space_group_symop_operation_xyz
  'x, y, z'

loop_
  _atom_site_type_symbol
  _atom_site_label
  _atom_site_symmetry_multiplicity
  _atom_site_fract_x
  _atom_site_fract_y
  _atom_site_fract_z
  _atom_site_occupancy
  Mg  Mg1       1.0  0.25000003817383526  0.25000011288982354  0.2499999360710418  1.0000
  Mg  Mg2       1.0  0.749999953165476  0.7500000560033341  0.7500000510336885  1.0000
  Nb  Nb1       1.0  0.999999948455814  3.0120163273634487e-08  0.9999999804436897  1.0000
  F   F1        1.0  0.26509393577781926  0.26509388869564066  0.7349061214834123  1.0000
  F   F2        1.0  0.7349061860139953  0.7349060067991233  0.26509390115063697  1.0000
  F   F3        1.0  0.7349060778941948  0.2650939783156072  0.2650938665329977  1.0000
  F   F4        1.0  0.26509391132888954  0.7349060724138402  0.7349061012573601  1.0000
  F   F5        1.0  0.26509390686383605  0.7349059883856172  0.26509392490163336  1.0000
  F   F6        1.0  0.734906049441481  0.26509387930592376  0.7349061016805443  1.0000
