data_image0
_chemical_formula_structural       Mg2NiBr6
_chemical_formula_sum              "Mg2 Ni1 Br6"
_cell_length_a       6.93966746418898
_cell_length_b       6.939667486068759
_cell_length_c       6.939667416364737
_cell_angle_alpha    60.00000019102975
_cell_angle_beta     60.00000074891575
_cell_angle_gamma    60.00000041582672

_space_group_name_H-M_alt    "P 1"
_space_group_IT_number       1

loop_
  _space_group_symop_operation_xyz
  'x, y, z'

loop_
  _atom_site_type_symbol
  _atom_site_label
  _atom_site_symmetry_multiplicity
  _atom_site_fract_x
  _atom_site_fract_y
  _atom_site_fract_z
  _atom_site_occupancy
  Mg  Mg1       1.0  0.25000000195893246  0.24999997094079934  0.25000000011956647  1.0000
  Mg  Mg2       1.0  0.7499999763444368  0.750000036361661  0.749999982175073  1.0000
  Ni  Ni1       1.0  3.650516042204625e-08  5.294539833852857e-09  7.150187063195325e-10  1.0000
  Br  Br1       1.0  0.24849200516546419  0.24849204537717154  0.7515079817295834  1.0000
  Br  Br2       1.0  0.7515079760966339  0.7515079230986632  0.24849207037468948  1.0000
  Br  Br3       1.0  0.7515079524544941  0.24849201708995283  0.24849204186916418  1.0000
  Br  Br4       1.0  0.24849204208427567  0.7515080113906671  0.7515079260416693  1.0000
  Br  Br5       1.0  0.2484920559890102  0.7515079867135241  0.24849200421380027  1.0000
  Br  Br6       1.0  0.7515079581476215  0.24849200294047002  0.7515079891623189  1.0000
