data_image0
_chemical_formula_structural       Mg2PdF6
_chemical_formula_sum              "Mg2 Pd1 F6"
_cell_length_a       5.2402824756230775
_cell_length_b       5.24028230697643
_cell_length_c       5.240282262187715
_cell_angle_alpha    59.99999967212108
_cell_angle_beta     60.000000132264326
_cell_angle_gamma    59.99999979151498

_space_group_name_H-M_alt    "P 1"
_space_group_IT_number       1

loop_
  _space_group_symop_operation_xyz
  'x, y, z'

loop_
  _atom_site_type_symbol
  _atom_site_label
  _atom_site_symmetry_multiplicity
  _atom_site_fract_x
  _atom_site_fract_y
  _atom_site_fract_z
  _atom_site_occupancy
  Mg  Mg1       1.0  0.24999995132150718  0.25000008426688836  0.24999994038179316  1.0000
  Mg  Mg2       1.0  0.7500000109521988  0.7499999933744103  0.7500000326613769  1.0000
  Pd  Pd1       1.0  1.1418537030655723e-08  0.9999999789654389  0.9999999742753056  1.0000
  F   F1        1.0  0.26739702493922307  0.26739704427153466  0.7326029746457778  1.0000
  F   F2        1.0  0.7326029533395682  0.7326029258597844  0.2673970651410756  1.0000
  F   F3        1.0  0.732602967983401  0.2673970729785529  0.26739708850633526  1.0000
  F   F4        1.0  0.2673970155921964  0.7326029275360212  0.7326029238990165  1.0000
  F   F5        1.0  0.26739708950276264  0.7326029145971967  0.2673970632634038  1.0000
  F   F6        1.0  0.7326029579975054  0.2673970461854287  0.7326029771197639  1.0000
