data_image0
_chemical_formula_structural       Mg2PdBr6
_chemical_formula_sum              "Mg2 Pd1 Br6"
_cell_length_a       7.0446723224619525
_cell_length_b       7.044672437020895
_cell_length_c       7.044672316297668
_cell_angle_alpha    60.00000069531953
_cell_angle_beta     60.00000092545735
_cell_angle_gamma    60.00000024257479

_space_group_name_H-M_alt    "P 1"
_space_group_IT_number       1

loop_
  _space_group_symop_operation_xyz
  'x, y, z'

loop_
  _atom_site_type_symbol
  _atom_site_label
  _atom_site_symmetry_multiplicity
  _atom_site_fract_x
  _atom_site_fract_y
  _atom_site_fract_z
  _atom_site_occupancy
  Mg  Mg1       1.0  0.24999999716037455  0.24999998374046314  0.2500000089098451  1.0000
  Mg  Mg2       1.0  0.7500000422594698  0.7500000103317676  0.7499999646876113  1.0000
  Pd  Pd1       1.0  0.9999999989233423  2.781664869574969e-08  0.9999999710153676  1.0000
  Br  Br1       1.0  0.24988341310011727  0.24988344840284418  0.750116544738944  1.0000
  Br  Br2       1.0  0.7501165679906457  0.7501165387152247  0.24988344730500917  1.0000
  Br  Br3       1.0  0.7501165689701762  0.24988342328912175  0.24988343213012912  1.0000
  Br  Br4       1.0  0.24988339831169143  0.7501166003382986  0.7501166081831183  1.0000
  Br  Br5       1.0  0.2498834248296045  0.7501165613181572  0.249883426604138  1.0000
  Br  Br6       1.0  0.7501165849044301  0.24988341363012773  0.7501165941103949  1.0000
