data_image0
_chemical_formula_structural       Mg2PdCl6
_chemical_formula_sum              "Mg2 Pd1 Cl6"
_cell_length_a       6.742301933899875
_cell_length_b       6.742301967518677
_cell_length_c       6.74230194194567
_cell_angle_alpha    59.99999929193391
_cell_angle_beta     59.99999947056133
_cell_angle_gamma    59.99999912077981

_space_group_name_H-M_alt    "P 1"
_space_group_IT_number       1

loop_
  _space_group_symop_operation_xyz
  'x, y, z'

loop_
  _atom_site_type_symbol
  _atom_site_label
  _atom_site_symmetry_multiplicity
  _atom_site_fract_x
  _atom_site_fract_y
  _atom_site_fract_z
  _atom_site_occupancy
  Mg  Mg1       1.0  0.24999992771408527  0.25000008845317967  0.24999999965370553  1.0000
  Mg  Mg2       1.0  0.7500000906928745  0.7499999438375343  0.7499998442809567  1.0000
  Pd  Pd1       1.0  0.9999999961592072  2.1798102055638534e-08  0.9999999836054804  1.0000
  Cl  Cl1       1.0  0.2471464050689966  0.24714640068291965  0.7528536210605372  1.0000
  Cl  Cl2       1.0  0.7528535770969148  0.7528535861950807  0.24714643426589825  1.0000
  Cl  Cl3       1.0  0.7528535914540825  0.24714636329611944  0.24714643850516047  1.0000
  Cl  Cl4       1.0  0.24714643172866077  0.7528535981507618  0.7528536194106294  1.0000
  Cl  Cl5       1.0  0.24714634148423878  0.7528535783783668  0.24714646353490813  1.0000
  Cl  Cl6       1.0  0.7528536347305321  0.24714642121519323  0.7528535973083554  1.0000
