data_image0
_chemical_formula_structural       Mg2SBr6
_chemical_formula_sum              "Mg2 S1 Br6"
_cell_length_a       7.11716915945958
_cell_length_b       7.117169497642767
_cell_length_c       7.117169063818339
_cell_angle_alpha    59.9999998235346
_cell_angle_beta     59.999998336174755
_cell_angle_gamma    60.00000261597971

_space_group_name_H-M_alt    "P 1"
_space_group_IT_number       1

loop_
  _space_group_symop_operation_xyz
  'x, y, z'

loop_
  _atom_site_type_symbol
  _atom_site_label
  _atom_site_symmetry_multiplicity
  _atom_site_fract_x
  _atom_site_fract_y
  _atom_site_fract_z
  _atom_site_occupancy
  Mg  Mg1       1.0  0.24999984877470346  0.24999992705094234  0.2500001570844049  1.0000
  Mg  Mg2       1.0  0.7499999332743167  0.7500000220692319  0.7499999479669966  1.0000
  S   S1        1.0  4.067568670549922e-08  0.9999999655833732  2.0756371576749763e-08  1.0000
  Br  Br1       1.0  0.25458220352516714  0.2545822293708205  0.7454177649046451  1.0000
  Br  Br2       1.0  0.745417845727442  0.7454179159241376  0.2545820466352286  1.0000
  Br  Br3       1.0  0.745417807423734  0.25458223368730193  0.25458216335538253  1.0000
  Br  Br4       1.0  0.25458234448536377  0.7454178031952795  0.745417826694065  1.0000
  Br  Br5       1.0  0.25458222881514836  0.7454176996321918  0.25458215755154273  1.0000
  Br  Br6       1.0  0.7454177460229507  0.25458223572133487  0.745417932456451  1.0000
