data_image0
_chemical_formula_structural       Mg2ScCl6
_chemical_formula_sum              "Mg2 Sc1 Cl6"
_cell_length_a       6.810187852236889
_cell_length_b       6.810187803386647
_cell_length_c       6.810187786925634
_cell_angle_alpha    59.99999965690087
_cell_angle_beta     60.00000017546205
_cell_angle_gamma    59.99999991577057

_space_group_name_H-M_alt    "P 1"
_space_group_IT_number       1

loop_
  _space_group_symop_operation_xyz
  'x, y, z'

loop_
  _atom_site_type_symbol
  _atom_site_label
  _atom_site_symmetry_multiplicity
  _atom_site_fract_x
  _atom_site_fract_y
  _atom_site_fract_z
  _atom_site_occupancy
  Mg  Mg1       1.0  0.24999990208880815  0.2500000292667578  0.24999994023809033  1.0000
  Mg  Mg2       1.0  0.7500000182504187  0.749999909758571  0.750000000432358  1.0000
  Sc  Sc1       1.0  0.9999999893300929  0.9999999964031977  5.1185003406989566e-08  1.0000
  Cl  Cl1       1.0  0.2525818863093973  0.2525818889932484  0.7474180970380208  1.0000
  Cl  Cl2       1.0  0.7474181904639869  0.7474181453473349  0.252581848444279  1.0000
  Cl  Cl3       1.0  0.7474181691497862  0.25258188564339545  0.25258188949061056  1.0000
  Cl  Cl4       1.0  0.25258184869080175  0.7474181271163752  0.7474181212110949  1.0000
  Cl  Cl5       1.0  0.252581887298931  0.7474181202324324  0.25258189151218646  1.0000
  Cl  Cl6       1.0  0.7474180999189277  0.25258189792254115  0.7474181494239415  1.0000
