data_image0
_chemical_formula_structural       Mg2ScBr6
_chemical_formula_sum              "Mg2 Sc1 Br6"
_cell_length_a       7.194327379415244
_cell_length_b       7.194327358114433
_cell_length_c       7.194327387352661
_cell_angle_alpha    59.99999986153873
_cell_angle_beta     59.999998886491824
_cell_angle_gamma    59.999999481253475

_space_group_name_H-M_alt    "P 1"
_space_group_IT_number       1

loop_
  _space_group_symop_operation_xyz
  'x, y, z'

loop_
  _atom_site_type_symbol
  _atom_site_label
  _atom_site_symmetry_multiplicity
  _atom_site_fract_x
  _atom_site_fract_y
  _atom_site_fract_z
  _atom_site_occupancy
  Mg  Mg1       1.0  0.2500000051757665  0.2500000285537008  0.250000002821527  1.0000
  Mg  Mg2       1.0  0.7499999720000319  0.7499999273401535  0.7500000537893293  1.0000
  Sc  Sc1       1.0  2.1449362149315506e-08  0.9999999693572357  0.9999999865269089  1.0000
  Br  Br1       1.0  0.25272864551369795  0.252728620608598  0.7472713708019919  1.0000
  Br  Br2       1.0  0.7472713648639152  0.7472713897612816  0.25272861834021604  1.0000
  Br  Br3       1.0  0.7472713685974157  0.2527286235155447  0.25272862117405814  1.0000
  Br  Br4       1.0  0.2527286324254827  0.7472714004733411  0.7472713658360041  1.0000
  Br  Br5       1.0  0.2527285957853765  0.7472713916737233  0.25272863168124177  1.0000
  Br  Br6       1.0  0.7472714012653119  0.25272864423179303  0.7472713346768022  1.0000
