data_image0
_chemical_formula_structural       Mg2SI6
_chemical_formula_sum              "Mg2 S1 I6"
_cell_length_a       7.60632902580429
_cell_length_b       7.606329302925321
_cell_length_c       7.6063292751050815
_cell_angle_alpha    60.00000105480205
_cell_angle_beta     60.000000657607195
_cell_angle_gamma    60.00000003849164

_space_group_name_H-M_alt    "P 1"
_space_group_IT_number       1

loop_
  _space_group_symop_operation_xyz
  'x, y, z'

loop_
  _atom_site_type_symbol
  _atom_site_label
  _atom_site_symmetry_multiplicity
  _atom_site_fract_x
  _atom_site_fract_y
  _atom_site_fract_z
  _atom_site_occupancy
  Mg  Mg1       1.0  0.25000001740698424  0.2499999559905078  0.2500000278811346  1.0000
  Mg  Mg2       1.0  0.7499999703340833  0.7500000225474067  0.749999985508251  1.0000
  S   S1        1.0  0.9999998115898814  0.9999999822881833  2.6608309505149533e-07  1.0000
  I   I1        1.0  0.26359364004072566  0.26359356056168803  0.7364064135606221  1.0000
  I   I2        1.0  0.7364064296765866  0.7364064179762254  0.26359357330228317  1.0000
  I   I3        1.0  0.7364063946731064  0.26359361436354917  0.2635935223743267  1.0000
  I   I4        1.0  0.26359365162841686  0.7364063979878382  0.7364063422819169  1.0000
  I   I5        1.0  0.2635936855619693  0.7364064170268142  0.26359350689312044  1.0000
  I   I6        1.0  0.7364063929559538  0.26359363074821285  0.7364063660133312  1.0000
