data_image0
_chemical_formula_structural       Mg2SF6
_chemical_formula_sum              "Mg2 S1 F6"
_cell_length_a       4.990757695562385
_cell_length_b       4.990757626485805
_cell_length_c       4.990757656088983
_cell_angle_alpha    59.99999939894768
_cell_angle_beta     60.000000611429776
_cell_angle_gamma    60.000000400557184

_space_group_name_H-M_alt    "P 1"
_space_group_IT_number       1

loop_
  _space_group_symop_operation_xyz
  'x, y, z'

loop_
  _atom_site_type_symbol
  _atom_site_label
  _atom_site_symmetry_multiplicity
  _atom_site_fract_x
  _atom_site_fract_y
  _atom_site_fract_z
  _atom_site_occupancy
  Mg  Mg1       1.0  0.24999997420812756  0.24999999981698517  0.2499999651863795  1.0000
  Mg  Mg2       1.0  0.7500000116187648  0.750000023991215  0.7499999970844168  1.0000
  S   S1        1.0  1.864977050329145e-08  0.9999999926379223  0.9999999983635612  1.0000
  F   F1        1.0  0.2650181510590117  0.26501811318749896  0.7349818705538538  1.0000
  F   F2        1.0  0.7349818761574648  0.7349818836264159  0.2650181225896651  1.0000
  F   F3        1.0  0.7349818492817405  0.26501808463197013  0.26501818434367785  1.0000
  F   F4        1.0  0.2650181391636061  0.7349818827336326  0.7349818609428961  1.0000
  F   F5        1.0  0.2650181144026842  0.7349818756955333  0.26501814956376424  1.0000
  F   F6        1.0  0.7349818639458623  0.2650181358425369  0.7349818526368268  1.0000
