data_image0
_chemical_formula_structural       Mg2ScF6
_chemical_formula_sum              "Mg2 Sc1 F6"
_cell_length_a       5.788466103186055
_cell_length_b       5.788464678256454
_cell_length_c       5.788465353433833
_cell_angle_alpha    59.999974763575246
_cell_angle_beta     59.999987887630645
_cell_angle_gamma    59.99998433041247

_space_group_name_H-M_alt    "P 1"
_space_group_IT_number       1

loop_
  _space_group_symop_operation_xyz
  'x, y, z'

loop_
  _atom_site_type_symbol
  _atom_site_label
  _atom_site_symmetry_multiplicity
  _atom_site_fract_x
  _atom_site_fract_y
  _atom_site_fract_z
  _atom_site_occupancy
  Mg  Mg1       1.0  0.2500015303935113  0.24999651999071212  0.24999960832417917  1.0000
  Mg  Mg2       1.0  0.7499989154626086  0.750001476369304  0.7500013935315997  1.0000
  Sc  Sc1       1.0  9.960329536708957e-08  0.9999998328487781  2.5835854750793513e-07  1.0000
  F   F1        1.0  0.24587564896732253  0.24587386784552456  0.7541260276835545  1.0000
  F   F2        1.0  0.754123634644562  0.7541267056048652  0.24587429439006067  1.0000
  F   F3        1.0  0.7541257715222544  0.24587520281389735  0.24587418521866125  1.0000
  F   F4        1.0  0.24587439005985467  0.7541263693121357  0.7541242017217756  1.0000
  F   F5        1.0  0.24587529277274062  0.7541263128843474  0.24587415966159548  1.0000
  F   F6        1.0  0.7541249211288653  0.2458734565477564  0.7541258816020413  1.0000
