data_image0
_chemical_formula_structural       Mg2TiI6
_chemical_formula_sum              "Mg2 Ti1 I6"
_cell_length_a       7.786485066182784
_cell_length_b       7.786485158539848
_cell_length_c       7.786485035093992
_cell_angle_alpha    60.00000055153076
_cell_angle_beta     60.00000142234022
_cell_angle_gamma    59.99999998924084

_space_group_name_H-M_alt    "P 1"
_space_group_IT_number       1

loop_
  _space_group_symop_operation_xyz
  'x, y, z'

loop_
  _atom_site_type_symbol
  _atom_site_label
  _atom_site_symmetry_multiplicity
  _atom_site_fract_x
  _atom_site_fract_y
  _atom_site_fract_z
  _atom_site_occupancy
  Mg  Mg1       1.0  0.24999998441113863  0.2500000000058629  0.2500000337124846  1.0000
  Mg  Mg2       1.0  0.7499999887343736  0.7500000047363218  0.7500000296565476  1.0000
  Ti  Ti1       1.0  1.806532674678622e-08  0.9999999858438001  2.629952044854238e-08  1.0000
  I   I1        1.0  0.24885294367272226  0.2488529523357835  0.7511470525348156  1.0000
  I   I2        1.0  0.7511470372319538  0.7511470602709568  0.2488529311028709  1.0000
  I   I3        1.0  0.7511470559635083  0.24885296983256272  0.24885292923812138  1.0000
  I   I4        1.0  0.24885294526818721  0.7511470396283552  0.7511470381033076  1.0000
  I   I5        1.0  0.24885292757655628  0.7511470686625713  0.24885291610449417  1.0000
  I   I6        1.0  0.7511470953905913  0.24885291563176964  0.7511470503839444  1.0000
