data_image0
_chemical_formula_structural       Mg2TiCl6
_chemical_formula_sum              "Mg2 Ti1 Cl6"
_cell_length_a       6.851048288458288
_cell_length_b       6.851048248223561
_cell_length_c       6.851048313279157
_cell_angle_alpha    59.99999824763857
_cell_angle_beta     59.99999825325574
_cell_angle_gamma    59.9999987818058

_space_group_name_H-M_alt    "P 1"
_space_group_IT_number       1

loop_
  _space_group_symop_operation_xyz
  'x, y, z'

loop_
  _atom_site_type_symbol
  _atom_site_label
  _atom_site_symmetry_multiplicity
  _atom_site_fract_x
  _atom_site_fract_y
  _atom_site_fract_z
  _atom_site_occupancy
  Mg  Mg1       1.0  0.2500001903685075  0.250000151988229  0.24999977243384672  1.0000
  Mg  Mg2       1.0  0.749999808596195  0.750000109155699  0.7500000602530631  1.0000
  Ti  Ti1       1.0  0.9999999769150855  0.9999999731848719  5.560226519599523e-08  1.0000
  Cl  Cl1       1.0  0.2444335844204185  0.24443352302855323  0.7555664576501855  1.0000
  Cl  Cl2       1.0  0.7555664412952645  0.7555664252722168  0.24443359982213156  1.0000
  Cl  Cl3       1.0  0.7555664154252809  0.24443359739922496  0.2444335758566895  1.0000
  Cl  Cl4       1.0  0.24443357222349793  0.7555663437508449  0.7555664648144031  1.0000
  Cl  Cl5       1.0  0.2444336392589248  0.7555663346408477  0.2444335814514949  1.0000
  Cl  Cl6       1.0  0.7555663769751163  0.24443355109129164  0.7555664273873826  1.0000
