data_image0
_chemical_formula_structural       Mg2TiBr6
_chemical_formula_sum              "Mg2 Ti1 Br6"
_cell_length_a       7.198342346578936
_cell_length_b       7.19834246672146
_cell_length_c       7.198342346953615
_cell_angle_alpha    60.000000494228104
_cell_angle_beta     60.00000002839109
_cell_angle_gamma    59.999998176894756

_space_group_name_H-M_alt    "P 1"
_space_group_IT_number       1

loop_
  _space_group_symop_operation_xyz
  'x, y, z'

loop_
  _atom_site_type_symbol
  _atom_site_label
  _atom_site_symmetry_multiplicity
  _atom_site_fract_x
  _atom_site_fract_y
  _atom_site_fract_z
  _atom_site_occupancy
  Mg  Mg1       1.0  0.24999997970254925  0.24999995871251474  0.24999996357823415  1.0000
  Mg  Mg2       1.0  0.7499999417291825  0.7500000752044137  0.7499999913257656  1.0000
  Ti  Ti1       1.0  2.033650580773939e-08  0.9999999149286877  2.1253733498316763e-08  1.0000
  Br  Br1       1.0  0.24713438823042658  0.24713434148414562  0.7528656382956881  1.0000
  Br  Br2       1.0  0.752865632267525  0.7528657128498949  0.24713428604002888  1.0000
  Br  Br3       1.0  0.7528656694461491  0.24713431968823582  0.24713434570968268  1.0000
  Br  Br4       1.0  0.24713430548868762  0.7528657125272648  0.7528657263819774  1.0000
  Br  Br5       1.0  0.24713430644031154  0.7528657043996582  0.247134303964556  1.0000
  Br  Br6       1.0  0.752865754777871  0.24713426146021691  0.7528657192653994  1.0000
