data_image0
_chemical_formula_structural       Mg2VF6
_chemical_formula_sum              "Mg2 V1 F6"
_cell_length_a       5.140645618095897
_cell_length_b       5.140645655797028
_cell_length_c       5.140645656797519
_cell_angle_alpha    60.000000078507114
_cell_angle_beta     60.00000046710007
_cell_angle_gamma    59.99999969342534

_space_group_name_H-M_alt    "P 1"
_space_group_IT_number       1

loop_
  _space_group_symop_operation_xyz
  'x, y, z'

loop_
  _atom_site_type_symbol
  _atom_site_label
  _atom_site_symmetry_multiplicity
  _atom_site_fract_x
  _atom_site_fract_y
  _atom_site_fract_z
  _atom_site_occupancy
  Mg  Mg1       1.0  0.24999996974984506  0.2500000215164816  0.25000001980884434  1.0000
  Mg  Mg2       1.0  0.7500000283224111  0.7500000240474056  0.749999934548754  1.0000
  V   V1        1.0  0.9999999717295933  0.9999999904701087  4.029823913099007e-08  1.0000
  F   F1        1.0  0.2622571801505018  0.26225720727999585  0.7377428026596436  1.0000
  F   F2        1.0  0.737742802221614  0.7377427977818528  0.26225723037634846  1.0000
  F   F3        1.0  0.7377428668502074  0.2622571690197619  0.26225711725772  1.0000
  F   F4        1.0  0.26225719851905754  0.7377428026874664  0.7377428248174565  1.0000
  F   F5        1.0  0.2622571151038731  0.7377428606956651  0.26225718587563907  1.0000
  F   F6        1.0  0.7377428645003802  0.2622571324538192  0.7377428467193429  1.0000
