data_image0
_chemical_formula_structural       Mg2VI6
_chemical_formula_sum              "Mg2 V1 I6"
_cell_length_a       7.64159249662608
_cell_length_b       7.641592393257561
_cell_length_c       7.641592412438163
_cell_angle_alpha    60.000000771942524
_cell_angle_beta     60.00000059050684
_cell_angle_gamma    59.99999997070855

_space_group_name_H-M_alt    "P 1"
_space_group_IT_number       1

loop_
  _space_group_symop_operation_xyz
  'x, y, z'

loop_
  _atom_site_type_symbol
  _atom_site_label
  _atom_site_symmetry_multiplicity
  _atom_site_fract_x
  _atom_site_fract_y
  _atom_site_fract_z
  _atom_site_occupancy
  Mg  Mg1       1.0  0.24999997069916888  0.25000006391974344  0.2499999930795791  1.0000
  Mg  Mg2       1.0  0.7500000298879778  0.7500000106501588  0.7499999755650867  1.0000
  V   V1        1.0  1.2730219268551858e-08  0.9999999663425617  0.9999999790565429  1.0000
  I   I1        1.0  0.2485708109860578  0.24857082126913993  0.751429139782175  1.0000
  I   I2        1.0  0.7514292090172349  0.7514291859858858  0.24857079392360626  1.0000
  I   I3        1.0  0.7514291554828241  0.24857082701059824  0.2485707978433849  1.0000
  I   I4        1.0  0.24857077277186201  0.7514292106963961  0.751429241102498  1.0000
  I   I5        1.0  0.24857083465064117  0.7514291485536947  0.24857083521094933  1.0000
  I   I6        1.0  0.7514292062955974  0.24857076413995874  0.7514292386856383  1.0000
