data_image0
_chemical_formula_structural       Mg2VBr6
_chemical_formula_sum              "Mg2 V1 Br6"
_cell_length_a       7.084194971929629
_cell_length_b       7.084195050520785
_cell_length_c       7.084194834588061
_cell_angle_alpha    60.00000024267029
_cell_angle_beta     59.999999956912234
_cell_angle_gamma    60.00000165355534

_space_group_name_H-M_alt    "P 1"
_space_group_IT_number       1

loop_
  _space_group_symop_operation_xyz
  'x, y, z'

loop_
  _atom_site_type_symbol
  _atom_site_label
  _atom_site_symmetry_multiplicity
  _atom_site_fract_x
  _atom_site_fract_y
  _atom_site_fract_z
  _atom_site_occupancy
  Mg  Mg1       1.0  0.24999997034779656  0.25000007119201334  0.24999990205797618  1.0000
  Mg  Mg2       1.0  0.7500000164009198  0.7500000735399005  0.7499997390407567  1.0000
  V   V1        1.0  0.9999999901382862  0.9999999757962221  5.655735063332446e-08  1.0000
  Br  Br1       1.0  0.2481882303157206  0.24818825113571352  0.7518117784923171  1.0000
  Br  Br2       1.0  0.7518118172390569  0.751811696508297  0.2481882935267446  1.0000
  Br  Br3       1.0  0.7518117326066682  0.2481882431227956  0.24818833501990575  1.0000
  Br  Br4       1.0  0.24818824378886978  0.7518117321826735  0.7518118236813257  1.0000
  Br  Br5       1.0  0.24818822822768477  0.7518117110475616  0.24818831341325964  1.0000
  Br  Br6       1.0  0.7518117615042128  0.24818824869833706  0.7518117673503679  1.0000
