data_image0
_chemical_formula_structural       Mg2VCl6
_chemical_formula_sum              "Mg2 V1 Cl6"
_cell_length_a       6.759230120430381
_cell_length_b       6.7592300860521055
_cell_length_c       6.759230200505902
_cell_angle_alpha    59.9999991811704
_cell_angle_beta     59.999999149057665
_cell_angle_gamma    59.999999128693986

_space_group_name_H-M_alt    "P 1"
_space_group_IT_number       1

loop_
  _space_group_symop_operation_xyz
  'x, y, z'

loop_
  _atom_site_type_symbol
  _atom_site_label
  _atom_site_symmetry_multiplicity
  _atom_site_fract_x
  _atom_site_fract_y
  _atom_site_fract_z
  _atom_site_occupancy
  Mg  Mg1       1.0  0.24999993849126315  0.249999976933449  0.2500001222643482  1.0000
  Mg  Mg2       1.0  0.7499998958659458  0.750000104748426  0.749999970361495  1.0000
  V   V1        1.0  0.9999999742536204  3.6239183157651625e-08  0.9999999991919735  1.0000
  Cl  Cl1       1.0  0.2448396679210247  0.2448396054616727  0.7551603411932931  1.0000
  Cl  Cl2       1.0  0.7551603788585441  0.7551603258275922  0.2448396079788352  1.0000
  Cl  Cl3       1.0  0.7551603904316373  0.2448396225219711  0.24483965421109916  1.0000
  Cl  Cl4       1.0  0.2448397323079778  0.755160326886885  0.7551603026611716  1.0000
  Cl  Cl5       1.0  0.2448396544663192  0.7551603419938987  0.24483968246349397  1.0000
  Cl  Cl6       1.0  0.7551603664454622  0.2448396617737321  0.7551603247735579  1.0000
