data_image0
_chemical_formula_structural       Mg2ZnCl6
_chemical_formula_sum              "Mg2 Zn1 Cl6"
_cell_length_a       6.5509571073740895
_cell_length_b       6.550956969655676
_cell_length_c       6.550956943337763
_cell_angle_alpha    59.99999978747874
_cell_angle_beta     60.00000027070174
_cell_angle_gamma    59.99999927408266

_space_group_name_H-M_alt    "P 1"
_space_group_IT_number       1

loop_
  _space_group_symop_operation_xyz
  'x, y, z'

loop_
  _atom_site_type_symbol
  _atom_site_label
  _atom_site_symmetry_multiplicity
  _atom_site_fract_x
  _atom_site_fract_y
  _atom_site_fract_z
  _atom_site_occupancy
  Mg  Mg1       1.0  0.24999996628363685  0.25000004809798143  0.25000002748413935  1.0000
  Mg  Mg2       1.0  0.7500000199785768  0.749999923685113  0.7500001611963971  1.0000
  Zn  Zn1       1.0  0.9999999959584456  0.9999999962608673  0.9999999977843654  1.0000
  Cl  Cl1       1.0  0.25279261783089724  0.2527926035031725  0.7472074145751338  1.0000
  Cl  Cl2       1.0  0.747207441500065  0.7472074187582136  0.25279252152006465  1.0000
  Cl  Cl3       1.0  0.7472074006707046  0.25279261899930694  0.2527925405822459  1.0000
  Cl  Cl4       1.0  0.25279258398767485  0.747207436914274  0.7472073687018163  1.0000
  Cl  Cl5       1.0  0.2527925781707234  0.7472074415476232  0.25279254898344755  1.0000
  Cl  Cl6       1.0  0.7472074025011377  0.25279251527894075  0.74720740420491  1.0000
