data_image0
_chemical_formula_structural       Mg2ZnBr6
_chemical_formula_sum              "Mg2 Zn1 Br6"
_cell_length_a       6.991255196729079
_cell_length_b       6.991255206634863
_cell_length_c       6.991255145163515
_cell_angle_alpha    59.99999983315537
_cell_angle_beta     60.00000015061618
_cell_angle_gamma    59.99999975159888

_space_group_name_H-M_alt    "P 1"
_space_group_IT_number       1

loop_
  _space_group_symop_operation_xyz
  'x, y, z'

loop_
  _atom_site_type_symbol
  _atom_site_label
  _atom_site_symmetry_multiplicity
  _atom_site_fract_x
  _atom_site_fract_y
  _atom_site_fract_z
  _atom_site_occupancy
  Mg  Mg1       1.0  0.2500000274210639  0.2499999603140985  0.2500000004308778  1.0000
  Mg  Mg2       1.0  0.7499999825295505  0.7499999720371437  0.7500001329139206  1.0000
  Zn  Zn1       1.0  1.0676941763371463e-08  1.7518239862004587e-08  3.453459217363689e-08  1.0000
  Br  Br1       1.0  0.25340100800179505  0.2534010103392933  0.7465989918962581  1.0000
  Br  Br2       1.0  0.7465989905533683  0.7465989710630221  0.2534009595598801  1.0000
  Br  Br3       1.0  0.746598988797492  0.2534010506299732  0.253400980653488  1.0000
  Br  Br4       1.0  0.25340101244262153  0.7465989920861825  0.7465989588282714  1.0000
  Br  Br5       1.0  0.25340102377329005  0.7465989892157147  0.2534009753504327  1.0000
  Br  Br6       1.0  0.7465989507572794  0.25340103948584913  0.7465989716201699  1.0000
