data_image0
_chemical_formula_structural       Mg2ZnF6
_chemical_formula_sum              "Mg2 Zn1 F6"
_cell_length_a       5.15931304496449
_cell_length_b       5.159312996654593
_cell_length_c       5.159312984607386
_cell_angle_alpha    59.99999876635475
_cell_angle_beta     59.999997930938086
_cell_angle_gamma    59.999998283437755

_space_group_name_H-M_alt    "P 1"
_space_group_IT_number       1

loop_
  _space_group_symop_operation_xyz
  'x, y, z'

loop_
  _atom_site_type_symbol
  _atom_site_label
  _atom_site_symmetry_multiplicity
  _atom_site_fract_x
  _atom_site_fract_y
  _atom_site_fract_z
  _atom_site_occupancy
  Mg  Mg1       1.0  0.25000003573717555  0.2500000145426477  0.25000003513490865  1.0000
  Mg  Mg2       1.0  0.7499999110276221  0.7500000816095879  0.7500000565818501  1.0000
  Zn  Zn1       1.0  8.657537923608567e-09  5.459861078559858e-08  4.0086899612679793e-08  1.0000
  F   F1        1.0  0.26059573877721004  0.2605956318255762  0.7394042637454455  1.0000
  F   F2        1.0  0.739404335132125  0.7394042910354156  0.2605955951966478  1.0000
  F   F3        1.0  0.7394043243092052  0.2605956702600286  0.26059559704712487  1.0000
  F   F4        1.0  0.26059561972104067  0.7394043736674489  0.739404396163523  1.0000
  F   F5        1.0  0.2605956801007619  0.7394042885065327  0.2605956451838576  1.0000
  F   F6        1.0  0.7394043555128118  0.2605956082420792  0.7394043855157717  1.0000
