data_image0
_chemical_formula_structural       Mn2AgF6
_chemical_formula_sum              "Mn2 Ag1 F6"
_cell_length_a       5.471425246805577
_cell_length_b       5.471425274749334
_cell_length_c       5.471425341634799
_cell_angle_alpha    59.99999975293679
_cell_angle_beta     59.999999677635934
_cell_angle_gamma    59.999997934116706

_space_group_name_H-M_alt    "P 1"
_space_group_IT_number       1

loop_
  _space_group_symop_operation_xyz
  'x, y, z'

loop_
  _atom_site_type_symbol
  _atom_site_label
  _atom_site_symmetry_multiplicity
  _atom_site_fract_x
  _atom_site_fract_y
  _atom_site_fract_z
  _atom_site_occupancy
  Mn  Mn1       1.0  0.24999982968039966  0.24999994622469587  0.25000005235610845  1.0000
  Mn  Mn2       1.0  0.7500000143820329  0.750000105048254  0.7499997849706315  1.0000
  Ag  Ag1       1.0  0.9999999996379095  0.9999999820924922  1.0962476411489617e-08  1.0000
  F   F1        1.0  0.26724090903793163  0.2672408224258746  0.7327591768304876  1.0000
  F   F2        1.0  0.7327591565125531  0.732759197508932  0.26724092730140747  1.0000
  F   F3        1.0  0.7327592120585463  0.26724080062682104  0.26724094226328843  1.0000
  F   F4        1.0  0.26724087662247054  0.7327591499163923  0.732759091787594  1.0000
  F   F5        1.0  0.26724085969363337  0.7327591338585743  0.267240887531706  1.0000
  F   F6        1.0  0.7327591676352184  0.26724086145341  0.7327591328787457  1.0000
