data_image0
_chemical_formula_structural       Mn2AuI6
_chemical_formula_sum              "Mn2 Au1 I6"
_cell_length_a       7.631804730870255
_cell_length_b       7.631804788955578
_cell_length_c       7.631804757115586
_cell_angle_alpha    59.99999996625025
_cell_angle_beta     60.00000020975876
_cell_angle_gamma    60.00000061157131

_space_group_name_H-M_alt    "P 1"
_space_group_IT_number       1

loop_
  _space_group_symop_operation_xyz
  'x, y, z'

loop_
  _atom_site_type_symbol
  _atom_site_label
  _atom_site_symmetry_multiplicity
  _atom_site_fract_x
  _atom_site_fract_y
  _atom_site_fract_z
  _atom_site_occupancy
  Mn  Mn1       1.0  0.250000048529346  0.25000005232144373  0.24999989632775976  1.0000
  Mn  Mn2       1.0  0.7499999633869501  0.7500000317906618  0.7500000680432994  1.0000
  Au  Au1       1.0  1.878284302163687e-08  0.9999999935808376  2.9903021348071213e-09  1.0000
  I   I1        1.0  0.2623376787175051  0.26233765696593303  0.7376623459401681  1.0000
  I   I2        1.0  0.737662318407005  0.7376623035772951  0.2623376745081625  1.0000
  I   I3        1.0  0.7376623087627114  0.26233769393945483  0.2623376705791595  1.0000
  I   I4        1.0  0.2623376918309718  0.7376622698133546  0.7376623425988756  1.0000
  I   I5        1.0  0.2623377008737396  0.737662324278032  0.2623376536442743  1.0000
  I   I6        1.0  0.7376622662343935  0.2623376763849615  0.737662344718383  1.0000
