data_image0
_chemical_formula_structural       Mn2AgI6
_chemical_formula_sum              "Mn2 Ag1 I6"
_cell_length_a       7.577375079303342
_cell_length_b       7.577375083305454
_cell_length_c       7.577375201629576
_cell_angle_alpha    59.999999625971306
_cell_angle_beta     59.99999956891057
_cell_angle_gamma    60.000000084748

_space_group_name_H-M_alt    "P 1"
_space_group_IT_number       1

loop_
  _space_group_symop_operation_xyz
  'x, y, z'

loop_
  _atom_site_type_symbol
  _atom_site_label
  _atom_site_symmetry_multiplicity
  _atom_site_fract_x
  _atom_site_fract_y
  _atom_site_fract_z
  _atom_site_occupancy
  Mn  Mn1       1.0  0.24999999593566596  0.250000056788389  0.24999995419844237  1.0000
  Mn  Mn2       1.0  0.7500000849709624  0.7499998697299949  0.7500000501126143  1.0000
  Ag  Ag1       1.0  3.0939780860404534e-08  0.9999999757552281  3.360460522019496e-08  1.0000
  I   I1        1.0  0.2608790841200302  0.2608791925405261  0.7391208658977722  1.0000
  I   I2        1.0  0.7391208595898768  0.739120816410082  0.26087915127863265  1.0000
  I   I3        1.0  0.7391208487701868  0.2608791892137453  0.26087912755555104  1.0000
  I   I4        1.0  0.26087912397000684  0.7391208423653166  0.7391208505943015  1.0000
  I   I5        1.0  0.26087915377733517  0.7391208611744571  0.2608791352555545  1.0000
  I   I6        1.0  0.7391208134826928  0.26087919141674065  0.7391208364480313  1.0000
