data_image0
_chemical_formula_structural       Mn2AgBr6
_chemical_formula_sum              "Mn2 Ag1 Br6"
_cell_length_a       6.9585556807287325
_cell_length_b       6.958555740114409
_cell_length_c       6.958555701490085
_cell_angle_alpha    59.9999996008845
_cell_angle_beta     59.999999105055394
_cell_angle_gamma    59.99999918114547

_space_group_name_H-M_alt    "P 1"
_space_group_IT_number       1

loop_
  _space_group_symop_operation_xyz
  'x, y, z'

loop_
  _atom_site_type_symbol
  _atom_site_label
  _atom_site_symmetry_multiplicity
  _atom_site_fract_x
  _atom_site_fract_y
  _atom_site_fract_z
  _atom_site_occupancy
  Mn  Mn1       1.0  0.2499998499415072  0.25000011511289977  0.24999996015129028  1.0000
  Mn  Mn2       1.0  0.7500002327657637  0.7499999194051069  0.7500001270278778  1.0000
  Ag  Ag1       1.0  0.9999999544916696  3.6961179403498574e-08  0.9999999755319792  1.0000
  Br  Br1       1.0  0.2614137413355525  0.26141392243201605  0.7385861967934795  1.0000
  Br  Br2       1.0  0.7385862636820448  0.7385860962454867  0.26141374027084213  1.0000
  Br  Br3       1.0  0.7385862150081711  0.2614138443011297  0.26141377061523363  1.0000
  Br  Br4       1.0  0.26141374356358443  0.7385861444554188  0.7385861960100076  1.0000
  Br  Br5       1.0  0.26141383555607856  0.7385861338514772  0.26141383070690816  1.0000
  Br  Br6       1.0  0.7385861580988704  0.2614137845028254  0.7385862067498128  1.0000
