data_image0
_chemical_formula_structural       Mn2AgCl6
_chemical_formula_sum              "Mn2 Ag1 Cl6"
_cell_length_a       6.545734586219884
_cell_length_b       6.545734715059499
_cell_length_c       6.545734770837313
_cell_angle_alpha    59.999999535378485
_cell_angle_beta     60.000000011303456
_cell_angle_gamma    59.99999990493113

_space_group_name_H-M_alt    "P 1"
_space_group_IT_number       1

loop_
  _space_group_symop_operation_xyz
  'x, y, z'

loop_
  _atom_site_type_symbol
  _atom_site_label
  _atom_site_symmetry_multiplicity
  _atom_site_fract_x
  _atom_site_fract_y
  _atom_site_fract_z
  _atom_site_occupancy
  Mn  Mn1       1.0  0.24999992876548507  0.24999997626578452  0.25000009087135155  1.0000
  Mn  Mn2       1.0  0.7499999746737386  0.7500000410608296  0.7499998748042717  1.0000
  Ag  Ag1       1.0  2.0758933507202177e-08  0.9999999906447103  4.992164862231275e-09  1.0000
  Cl  Cl1       1.0  0.2606111710691523  0.2606111301758803  0.7393888583880553  1.0000
  Cl  Cl2       1.0  0.7393888321016013  0.7393888684401536  0.26061119968806995  1.0000
  Cl  Cl3       1.0  0.7393888997180698  0.2606111061699447  0.26061116699905107  1.0000
  Cl  Cl4       1.0  0.2606111912455301  0.7393888830907998  0.7393888182486243  1.0000
  Cl  Cl5       1.0  0.26061108983704057  0.7393888296592918  0.26061114959152093  1.0000
  Cl  Cl6       1.0  0.7393888838615347  0.26061117269885864  0.739388846491729  1.0000
