data_image0
_chemical_formula_structural       Mn2BeI6
_chemical_formula_sum              "Mn2 Be1 I6"
_cell_length_a       7.462032762880004
_cell_length_b       7.462032858658448
_cell_length_c       7.462032712974336
_cell_angle_alpha    59.99999928715861
_cell_angle_beta     59.99999945801571
_cell_angle_gamma    59.99999898725916

_space_group_name_H-M_alt    "P 1"
_space_group_IT_number       1

loop_
  _space_group_symop_operation_xyz
  'x, y, z'

loop_
  _atom_site_type_symbol
  _atom_site_label
  _atom_site_symmetry_multiplicity
  _atom_site_fract_x
  _atom_site_fract_y
  _atom_site_fract_z
  _atom_site_occupancy
  Mn  Mn1       1.0  0.25000008223124864  0.2499999167473694  0.2500000867602745  1.0000
  Mn  Mn2       1.0  0.749999965116833  0.7500001261002534  0.7499998700701467  1.0000
  Be  Be1       1.0  0.9999999888085944  0.9999999917934902  3.2480953887098036e-08  1.0000
  I   I1        1.0  0.246569416326395  0.2465693252665308  0.753430631551498  1.0000
  I   I2        1.0  0.7534305640448836  0.7534306863963557  0.24656940920274625  1.0000
  I   I3        1.0  0.7534305949349124  0.24656931576056118  0.2465694250025688  1.0000
  I   I4        1.0  0.24656936907166263  0.753430661434986  0.7534305835426486  1.0000
  I   I5        1.0  0.24656935622525306  0.7534306234648221  0.24656938554410018  1.0000
  I   I6        1.0  0.7534306674902915  0.24656936029593254  0.7534305684221495  1.0000
