data_image0
_chemical_formula_structural       Mn2BeF6
_chemical_formula_sum              "Mn2 Be1 F6"
_cell_length_a       5.066527809169128
_cell_length_b       5.066527509678545
_cell_length_c       5.06652765760973
_cell_angle_alpha    60.00000001497284
_cell_angle_beta     59.999998892128716
_cell_angle_gamma    59.99999957276433

_space_group_name_H-M_alt    "P 1"
_space_group_IT_number       1

loop_
  _space_group_symop_operation_xyz
  'x, y, z'

loop_
  _atom_site_type_symbol
  _atom_site_label
  _atom_site_symmetry_multiplicity
  _atom_site_fract_x
  _atom_site_fract_y
  _atom_site_fract_z
  _atom_site_occupancy
  Mn  Mn1       1.0  0.2500001944110779  0.24999995742954703  0.2499998669412476  1.0000
  Mn  Mn2       1.0  0.7499999853290087  0.750000072926697  0.7499998843275879  1.0000
  Be  Be1       1.0  0.9999999435286363  5.31811738045241e-08  1.0427949107378799e-07  1.0000
  F   F1        1.0  0.23931994228580705  0.23932002714621747  0.7606801065019422  1.0000
  F   F2        1.0  0.7606800912023371  0.7606799838714213  0.23931994664712725  1.0000
  F   F3        1.0  0.7606800460756278  0.23932004340341811  0.23932003619821438  1.0000
  F   F4        1.0  0.2393199858050403  0.7606797331335956  0.7606800422292012  1.0000
  F   F5        1.0  0.23932005885626784  0.7606799504332098  0.23932006671068706  1.0000
  F   F6        1.0  0.760679750038119  0.2393201258522279  0.7606799733356628  1.0000
