data_image0
_chemical_formula_structural       Mn2CaF6
_chemical_formula_sum              "Mn2 Ca1 F6"
_cell_length_a       5.546942084455598
_cell_length_b       5.546942105809345
_cell_length_c       5.546942275742572
_cell_angle_alpha    59.999996814945234
_cell_angle_beta     59.99999828382289
_cell_angle_gamma    60.00000184754771

_space_group_name_H-M_alt    "P 1"
_space_group_IT_number       1

loop_
  _space_group_symop_operation_xyz
  'x, y, z'

loop_
  _atom_site_type_symbol
  _atom_site_label
  _atom_site_symmetry_multiplicity
  _atom_site_fract_x
  _atom_site_fract_y
  _atom_site_fract_z
  _atom_site_occupancy
  Mn  Mn1       1.0  0.24999997129572843  0.2499997709028195  0.24999999068743683  1.0000
  Mn  Mn2       1.0  0.7500001028225645  0.7500001760224112  0.7500000030012957  1.0000
  Ca  Ca1       1.0  2.438850476705591e-09  1.766371197643791e-08  2.6004619194050114e-08  1.0000
  F   F1        1.0  0.26607002181133854  0.266069859497987  0.7339300816309404  1.0000
  F   F2        1.0  0.7339300522240072  0.7339300189803565  0.2660699715618408  1.0000
  F   F3        1.0  0.7339300201349015  0.2660700365225336  0.2660698615016891  1.0000
  F   F4        1.0  0.2660698658304481  0.7339300252168243  0.7339300588859532  1.0000
  F   F5        1.0  0.2660699420834684  0.7339302167704854  0.26606989850476354  1.0000
  F   F6        1.0  0.7339300248151813  0.26606985821665724  0.7339301100019636  1.0000
