data_image0
_chemical_formula_structural       Mn2CO6
_chemical_formula_sum              "Mn2 C1 O6"
_cell_length_a       4.759592976008095
_cell_length_b       4.759592677578938
_cell_length_c       4.759592573816135
_cell_angle_alpha    60.00000070108189
_cell_angle_beta     60.000000035073676
_cell_angle_gamma    60.00000018434735

_space_group_name_H-M_alt    "P 1"
_space_group_IT_number       1

loop_
  _space_group_symop_operation_xyz
  'x, y, z'

loop_
  _atom_site_type_symbol
  _atom_site_label
  _atom_site_symmetry_multiplicity
  _atom_site_fract_x
  _atom_site_fract_y
  _atom_site_fract_z
  _atom_site_occupancy
  Mn  Mn1       1.0  0.2500000278930967  0.2500000023541821  0.25000001178827524  1.0000
  Mn  Mn2       1.0  0.7499999296861434  0.7500000250750396  0.7500000550316919  1.0000
  C   C1        1.0  2.690782770937149e-10  2.830535009506698e-08  1.9329108528818166e-08  1.0000
  O   O1        1.0  0.21854451827479834  0.21854449326676345  0.7814554342088524  1.0000
  O   O2        1.0  0.7814554932409318  0.7814555470285252  0.21854443112822164  1.0000
  O   O3        1.0  0.7814555995918872  0.2185444804758876  0.2185444801564583  1.0000
  O   O4        1.0  0.2185445115895086  0.7814554646104995  0.7814555069124215  1.0000
  O   O5        1.0  0.2185445118585777  0.781455518051325  0.21854451269039638  1.0000
  O   O6        1.0  0.7814554933839042  0.21854451195111035  0.7814554827888984  1.0000
