data_image0
_chemical_formula_structural       Mn2CdBr6
_chemical_formula_sum              "Mn2 Cd1 Br6"
_cell_length_a       7.00231855233575
_cell_length_b       7.002318676110347
_cell_length_c       7.002318702536937
_cell_angle_alpha    60.00000122189323
_cell_angle_beta     60.00000088916829
_cell_angle_gamma    60.00000157998846

_space_group_name_H-M_alt    "P 1"
_space_group_IT_number       1

loop_
  _space_group_symop_operation_xyz
  'x, y, z'

loop_
  _atom_site_type_symbol
  _atom_site_label
  _atom_site_symmetry_multiplicity
  _atom_site_fract_x
  _atom_site_fract_y
  _atom_site_fract_z
  _atom_site_occupancy
  Mn  Mn1       1.0  0.24999992900971962  0.25000034567006757  0.24999971952182432  1.0000
  Mn  Mn2       1.0  0.7499999897142178  0.7499997759407259  0.7499999262501011  1.0000
  Cd  Cd1       1.0  2.310352554833315e-08  0.9999999702660455  0.999999979037542  1.0000
  Br  Br1       1.0  0.26570216598761026  0.26570234974670204  0.7342977933843273  1.0000
  Br  Br2       1.0  0.7342978506976952  0.7342976214452679  0.265702334179709  1.0000
  Br  Br3       1.0  0.7342977121060666  0.2657022891755462  0.2657022872483722  1.0000
  Br  Br4       1.0  0.2657023421410399  0.7342976435371886  0.7342978393462825  1.0000
  Br  Br5       1.0  0.26570229030898185  0.7342977021800854  0.2657023021769968  1.0000
  Br  Br6       1.0  0.7342976932786114  0.2657023039930071  0.7342978115924488  1.0000
