data_image0
_chemical_formula_structural       Mn2CoBr6
_chemical_formula_sum              "Mn2 Co1 Br6"
_cell_length_a       6.792557758845614
_cell_length_b       6.7925578241466
_cell_length_c       6.792557983965236
_cell_angle_alpha    60.000001901537715
_cell_angle_beta     60.00000187110604
_cell_angle_gamma    60.000002296327146

_space_group_name_H-M_alt    "P 1"
_space_group_IT_number       1

loop_
  _space_group_symop_operation_xyz
  'x, y, z'

loop_
  _atom_site_type_symbol
  _atom_site_label
  _atom_site_symmetry_multiplicity
  _atom_site_fract_x
  _atom_site_fract_y
  _atom_site_fract_z
  _atom_site_occupancy
  Mn  Mn1       1.0  0.2500002423753686  0.24999971587885486  0.2500000415562517  1.0000
  Mn  Mn2       1.0  0.7500000861238479  0.7500002240685896  0.7500007372743581  1.0000
  Co  Co1       1.0  2.9998067185631055e-08  1.8030683228941826e-09  0.9999999487666467  1.0000
  Br  Br1       1.0  0.2525500837670014  0.2525499642234651  0.7474499567556989  1.0000
  Br  Br2       1.0  0.7474498696944127  0.7474500604681801  0.2525496834638014  1.0000
  Br  Br3       1.0  0.7474499206444917  0.2525501446949704  0.252549894864376  1.0000
  Br  Br4       1.0  0.25254987355192743  0.7474500008022784  0.747449883832973  1.0000
  Br  Br5       1.0  0.25255001808671657  0.7474500327874691  0.25254992457658093  1.0000
  Br  Br6       1.0  0.7474498797596114  0.25254984765868144  0.7474499274603623  1.0000
