data_image0
_chemical_formula_structural       Mn2CoCl6
_chemical_formula_sum              "Mn2 Co1 Cl6"
_cell_length_a       6.3908317577327916
_cell_length_b       6.390831719747143
_cell_length_c       6.390831494308645
_cell_angle_alpha    59.99999965708243
_cell_angle_beta     60.00000119431189
_cell_angle_gamma    60.000001232262775

_space_group_name_H-M_alt    "P 1"
_space_group_IT_number       1

loop_
  _space_group_symop_operation_xyz
  'x, y, z'

loop_
  _atom_site_type_symbol
  _atom_site_label
  _atom_site_symmetry_multiplicity
  _atom_site_fract_x
  _atom_site_fract_y
  _atom_site_fract_z
  _atom_site_occupancy
  Mn  Mn1       1.0  0.25000003865237774  0.2499997558009862  0.25000035353444044  1.0000
  Mn  Mn2       1.0  0.749999869795532  0.7500002064434794  0.7499998472969959  1.0000
  Co  Co1       1.0  2.1572093403117895e-08  5.749227646957883e-09  3.5514971577957243e-09  1.0000
  Cl  Cl1       1.0  0.2512023558255061  0.25120243042116963  0.7487975873674994  1.0000
  Cl  Cl2       1.0  0.7487975866573332  0.7487976736375787  0.2512024551259564  1.0000
  Cl  Cl3       1.0  0.7487975608224701  0.2512022923904251  0.2512024857616025  1.0000
  Cl  Cl4       1.0  0.2512024810536066  0.7487977790893702  0.7487973981453819  1.0000
  Cl  Cl5       1.0  0.2512024730411825  0.7487975400710862  0.25120230375646596  1.0000
  Cl  Cl6       1.0  0.7487976014702619  0.2512023359349724  0.7487975661204668  1.0000
