data_image0
_chemical_formula_structural       Mn2CoTe6
_chemical_formula_sum              "Mn2 Co1 Te6"
_cell_length_a       7.006316788992553
_cell_length_b       7.0063165361035304
_cell_length_c       7.006316632896703
_cell_angle_alpha    59.999998785737766
_cell_angle_beta     59.99999967346942
_cell_angle_gamma    59.99999869080407

_space_group_name_H-M_alt    "P 1"
_space_group_IT_number       1

loop_
  _space_group_symop_operation_xyz
  'x, y, z'

loop_
  _atom_site_type_symbol
  _atom_site_label
  _atom_site_symmetry_multiplicity
  _atom_site_fract_x
  _atom_site_fract_y
  _atom_site_fract_z
  _atom_site_occupancy
  Mn  Mn1       1.0  0.25000022867432453  0.2500001254734298  0.24999989849348808  1.0000
  Mn  Mn2       1.0  0.7499999681322695  0.7499998799717671  0.7500002155857936  1.0000
  Co  Co1       1.0  0.9999999780750297  2.622087293290949e-08  0.9999999507516938  1.0000
  Te  Te1       1.0  0.24849838782509973  0.24849846604801212  0.7515015449667013  1.0000
  Te  Te2       1.0  0.7515015422573449  0.751501583098641  0.2484983395031767  1.0000
  Te  Te3       1.0  0.7515014612030245  0.24849851060895956  0.2484983795679391  1.0000
  Te  Te4       1.0  0.24849848258111848  0.7515014825998315  0.7515015902477779  1.0000
  Te  Te5       1.0  0.2484984664465684  0.7515015076211561  0.24849842242281334  1.0000
  Te  Te6       1.0  0.7515014857122783  0.24849842090948202  0.7515016526179363  1.0000
