data_image0
_chemical_formula_structural       Mn2CoSe6
_chemical_formula_sum              "Mn2 Co1 Se6"
_cell_length_a       6.455300442195658
_cell_length_b       6.455300442446343
_cell_length_c       6.455300457334707
_cell_angle_alpha    60.00000001660037
_cell_angle_beta     59.99999977343714
_cell_angle_gamma    60.00000074866037

_space_group_name_H-M_alt    "P 1"
_space_group_IT_number       1

loop_
  _space_group_symop_operation_xyz
  'x, y, z'

loop_
  _atom_site_type_symbol
  _atom_site_label
  _atom_site_symmetry_multiplicity
  _atom_site_fract_x
  _atom_site_fract_y
  _atom_site_fract_z
  _atom_site_occupancy
  Mn  Mn1       1.0  0.25000002011327144  0.24999999171675416  0.24999998953811303  1.0000
  Mn  Mn2       1.0  0.7500002684161384  0.7499998821840282  0.7499999095101795  1.0000
  Co  Co1       1.0  0.9999999775955121  0.999999986719109  1.6293574967802845e-08  1.0000
  Se  Se1       1.0  0.2524158927821572  0.25241600857579827  0.74758404962691  1.0000
  Se  Se2       1.0  0.7475839899984724  0.7475842561626264  0.2524159358817951  1.0000
  Se  Se3       1.0  0.7475841800480454  0.2524158588610667  0.2524159258313869  1.0000
  Se  Se4       1.0  0.25241572608278373  0.7475840567796551  0.747584117211279  1.0000
  Se  Se5       1.0  0.25241586791852794  0.7475839876777152  0.2524159362899142  1.0000
  Se  Se6       1.0  0.7475840825872504  0.25241597729203047  0.7475841079233166  1.0000
