data_image0
_chemical_formula_structural       Mn2CuBr6
_chemical_formula_sum              "Mn2 Cu1 Br6"
_cell_length_a       6.809744846752314
_cell_length_b       6.809744810999456
_cell_length_c       6.809744927499076
_cell_angle_alpha    59.99999959678049
_cell_angle_beta     59.9999991549085
_cell_angle_gamma    59.99999999028264

_space_group_name_H-M_alt    "P 1"
_space_group_IT_number       1

loop_
  _space_group_symop_operation_xyz
  'x, y, z'

loop_
  _atom_site_type_symbol
  _atom_site_label
  _atom_site_symmetry_multiplicity
  _atom_site_fract_x
  _atom_site_fract_y
  _atom_site_fract_z
  _atom_site_occupancy
  Mn  Mn1       1.0  0.2500001475335721  0.2500001674935037  0.24999988984761787  1.0000
  Mn  Mn2       1.0  0.7499998537018147  0.7499999952984261  0.7499999503192996  1.0000
  Cu  Cu1       1.0  0.9999999825644099  0.9999999658281576  5.9578843238475416e-08  1.0000
  Br  Br1       1.0  0.254953813972238  0.2549537411449767  0.745046203159302  1.0000
  Br  Br2       1.0  0.7450462096183198  0.7450462274070073  0.2549538389602211  1.0000
  Br  Br3       1.0  0.7450461623068048  0.254953776776627  0.2549537900345808  1.0000
  Br  Br4       1.0  0.25495384604046917  0.7450461612005508  0.7450462735255037  1.0000
  Br  Br5       1.0  0.25495382691700724  0.7450461540624136  0.2549537302489542  1.0000
  Br  Br6       1.0  0.7450461650555349  0.2549538126910522  0.7450462639655495  1.0000
