data_image0
_chemical_formula_structural       Mn2CI6
_chemical_formula_sum              "Mn2 C1 I6"
_cell_length_a       7.461966960889389
_cell_length_b       7.461966956285263
_cell_length_c       7.461966903188747
_cell_angle_alpha    60.00000037219291
_cell_angle_beta     60.00000044299605
_cell_angle_gamma    60.000000585339926

_space_group_name_H-M_alt    "P 1"
_space_group_IT_number       1

loop_
  _space_group_symop_operation_xyz
  'x, y, z'

loop_
  _atom_site_type_symbol
  _atom_site_label
  _atom_site_symmetry_multiplicity
  _atom_site_fract_x
  _atom_site_fract_y
  _atom_site_fract_z
  _atom_site_occupancy
  Mn  Mn1       1.0  0.24999994604563092  0.2499999924947724  0.25000005123025204  1.0000
  Mn  Mn2       1.0  0.7500000142026929  0.7499999413753573  0.7499999322777327  1.0000
  C   C1        1.0  0.9999999953576563  0.0  1.3042205764786153e-08  1.0000
  I   I1        1.0  0.25152677098868476  0.25152679302493686  0.7484732222021642  1.0000
  I   I2        1.0  0.7484732481082135  0.7484732196283798  0.25152679702002023  1.0000
  I   I3        1.0  0.7484732183447527  0.251526768444977  0.25152680411020756  1.0000
  I   I4        1.0  0.25152680294056723  0.7484732376430742  0.7484731878175556  1.0000
  I   I5        1.0  0.251526758189457  0.7484732158867758  0.2515268102776976  1.0000
  I   I6        1.0  0.7484732474175414  0.2515268279515522  0.7484731719542171  1.0000
