data_image0
_chemical_formula_structural       Mn2CaI6
_chemical_formula_sum              "Mn2 Ca1 I6"
_cell_length_a       7.863690607105573
_cell_length_b       7.863690520254873
_cell_length_c       7.863690343782152
_cell_angle_alpha    60.000000042634476
_cell_angle_beta     59.99999995442091
_cell_angle_gamma    59.999999469950886

_space_group_name_H-M_alt    "P 1"
_space_group_IT_number       1

loop_
  _space_group_symop_operation_xyz
  'x, y, z'

loop_
  _atom_site_type_symbol
  _atom_site_label
  _atom_site_symmetry_multiplicity
  _atom_site_fract_x
  _atom_site_fract_y
  _atom_site_fract_z
  _atom_site_occupancy
  Mn  Mn1       1.0  0.2500001473996912  0.24999987535232412  0.2499999607207955  1.0000
  Mn  Mn2       1.0  0.7499999817512861  0.7500001836306265  0.7499999963729033  1.0000
  Ca  Ca1       1.0  0.9999999943045672  0.9999999906551907  0.9999998485616747  1.0000
  I   I1        1.0  0.2679864010354721  0.2679863756358287  0.732013590898793  1.0000
  I   I2        1.0  0.7320135693965284  0.7320136132610493  0.26798637377735596  1.0000
  I   I3        1.0  0.7320135581819774  0.2679863839104375  0.2679864316049625  1.0000
  I   I4        1.0  0.26798626898346517  0.7320136999920073  0.7320136958134482  1.0000
  I   I5        1.0  0.26798642182067395  0.7320136409092917  0.2679863906801259  1.0000
  I   I6        1.0  0.7320136632963533  0.2679862374073358  0.7320137143704026  1.0000
