data_image0
_chemical_formula_structural       Mn2CaCl6
_chemical_formula_sum              "Mn2 Ca1 Cl6"
_cell_length_a       6.686286364070174
_cell_length_b       6.686286473312325
_cell_length_c       6.686286351496793
_cell_angle_alpha    60.000000941987764
_cell_angle_beta     60.00000037019132
_cell_angle_gamma    60.00000104096165

_space_group_name_H-M_alt    "P 1"
_space_group_IT_number       1

loop_
  _space_group_symop_operation_xyz
  'x, y, z'

loop_
  _atom_site_type_symbol
  _atom_site_label
  _atom_site_symmetry_multiplicity
  _atom_site_fract_x
  _atom_site_fract_y
  _atom_site_fract_z
  _atom_site_occupancy
  Mn  Mn1       1.0  0.24999976304049415  0.25000000584544435  0.2500001189114965  1.0000
  Mn  Mn2       1.0  0.7499999013063646  0.7499999735748971  0.7500000741183662  1.0000
  Ca  Ca1       1.0  0.9999999719494729  2.1980718645344334e-08  0.999999982096525  1.0000
  Cl  Cl1       1.0  0.26598948405841705  0.2659894231728257  0.734010529514555  1.0000
  Cl  Cl2       1.0  0.7340105709335231  0.7340104774832744  0.26598945522893985  1.0000
  Cl  Cl3       1.0  0.734010640700644  0.2659894787597511  0.2659894038885143  1.0000
  Cl  Cl4       1.0  0.26598950890636464  0.7340105317999432  0.7340105728183566  1.0000
  Cl  Cl5       1.0  0.265989513942218  0.7340105745057798  0.26598936117719324  1.0000
  Cl  Cl6       1.0  0.734010635000295  0.26598953130369585  0.7340104904659124  1.0000
