data_image0
_chemical_formula_structural       Mn2CuCl6
_chemical_formula_sum              "Mn2 Cu1 Cl6"
_cell_length_a       6.410736120715973
_cell_length_b       6.410736029736142
_cell_length_c       6.410736116776935
_cell_angle_alpha    60.000000147630175
_cell_angle_beta     59.99999988032862
_cell_angle_gamma    59.99999974467139

_space_group_name_H-M_alt    "P 1"
_space_group_IT_number       1

loop_
  _space_group_symop_operation_xyz
  'x, y, z'

loop_
  _atom_site_type_symbol
  _atom_site_label
  _atom_site_symmetry_multiplicity
  _atom_site_fract_x
  _atom_site_fract_y
  _atom_site_fract_z
  _atom_site_occupancy
  Mn  Mn1       1.0  0.24999983673688866  0.25000008709976446  0.25000002827687845  1.0000
  Mn  Mn2       1.0  0.7499999019259848  0.7500002479260793  0.7499998504229678  1.0000
  Cu  Cu1       1.0  0.9999999853531474  4.39405580629549e-08  0.9999999463560658  1.0000
  Cl  Cl1       1.0  0.25397467368077664  0.25397449896118635  0.7460254228579224  1.0000
  Cl  Cl2       1.0  0.7460254303601912  0.7460253775544841  0.2539746209590891  1.0000
  Cl  Cl3       1.0  0.7460254692175655  0.2539744986617322  0.2539746289965539  1.0000
  Cl  Cl4       1.0  0.25397468749519  0.746025354928429  0.7460253437915206  1.0000
  Cl  Cl5       1.0  0.2539745600989751  0.7460253933694659  0.25397469509755694  1.0000
  Cl  Cl6       1.0  0.7460254565198834  0.25397450225079554  0.746025442153778  1.0000
