data_image0
_chemical_formula_structural       Mn2CaBr6
_chemical_formula_sum              "Mn2 Ca1 Br6"
_cell_length_a       7.1508863226170885
_cell_length_b       7.150886191457078
_cell_length_c       7.1508861744308785
_cell_angle_alpha    60.00000039331835
_cell_angle_beta     60.00000131865438
_cell_angle_gamma    59.99999932254017

_space_group_name_H-M_alt    "P 1"
_space_group_IT_number       1

loop_
  _space_group_symop_operation_xyz
  'x, y, z'

loop_
  _atom_site_type_symbol
  _atom_site_label
  _atom_site_symmetry_multiplicity
  _atom_site_fract_x
  _atom_site_fract_y
  _atom_site_fract_z
  _atom_site_occupancy
  Mn  Mn1       1.0  0.25000012474412736  0.24999990108808895  0.25000004939627063  1.0000
  Mn  Mn2       1.0  0.7499998808554501  0.7500002290685789  0.7500000228977308  1.0000
  Ca  Ca1       1.0  1.671856121375027e-08  0.9999999982872821  0.99999987502912  1.0000
  Br  Br1       1.0  0.26652981166434425  0.26652958586216013  0.7334702829480891  1.0000
  Br  Br2       1.0  0.7334702067919044  0.7334703216412175  0.26652969846429053  1.0000
  Br  Br3       1.0  0.7334702166634476  0.2665297030066411  0.26652971018370814  1.0000
  Br  Br4       1.0  0.26652962928704504  0.7334703877575228  0.7334703469599846  1.0000
  Br  Br5       1.0  0.26652974575659644  0.7334702861592891  0.26652964734280826  1.0000
  Br  Br6       1.0  0.7334703654269566  0.2665295853770179  0.7334703700171464  1.0000
