data_image0
_chemical_formula_structural       Mn2CoS6
_chemical_formula_sum              "Mn2 Co1 S6"
_cell_length_a       6.05650713713497
_cell_length_b       6.056506837742285
_cell_length_c       6.0565070776850645
_cell_angle_alpha    59.999998873688384
_cell_angle_beta     60.000000297835165
_cell_angle_gamma    59.999999119815115

_space_group_name_H-M_alt    "P 1"
_space_group_IT_number       1

loop_
  _space_group_symop_operation_xyz
  'x, y, z'

loop_
  _atom_site_type_symbol
  _atom_site_label
  _atom_site_symmetry_multiplicity
  _atom_site_fract_x
  _atom_site_fract_y
  _atom_site_fract_z
  _atom_site_occupancy
  Mn  Mn1       1.0  0.2499999243311071  0.2500000651492003  0.2500000156549485  1.0000
  Mn  Mn2       1.0  0.7500000330964531  0.7499999527839827  0.7500000101761043  1.0000
  Co  Co1       1.0  0.999999998747677  3.2355149284900014e-08  0.9999999877508203  1.0000
  S   S1        1.0  0.2523528854277051  0.2523528882237876  0.7476470890898145  1.0000
  S   S2        1.0  0.747647060157507  0.7476470508437189  0.25235290944611566  1.0000
  S   S3        1.0  0.7476471671205963  0.25235286796928696  0.2523528770792561  1.0000
  S   S4        1.0  0.25235292906185286  0.7476471054755665  0.7476470884095834  1.0000
  S   S5        1.0  0.25235286897098325  0.7476471488792503  0.25235291786045155  1.0000
  S   S6        1.0  0.7476471416085431  0.2523528811871141  0.7476471033970116  1.0000
