data_image0
_chemical_formula_structural       Mn2CdCl6
_chemical_formula_sum              "Mn2 Cd1 Cl6"
_cell_length_a       6.591909804783624
_cell_length_b       6.591909855521826
_cell_length_c       6.591909937921689
_cell_angle_alpha    59.999999534321496
_cell_angle_beta     59.99999935954866
_cell_angle_gamma    59.99999976595201

_space_group_name_H-M_alt    "P 1"
_space_group_IT_number       1

loop_
  _space_group_symop_operation_xyz
  'x, y, z'

loop_
  _atom_site_type_symbol
  _atom_site_label
  _atom_site_symmetry_multiplicity
  _atom_site_fract_x
  _atom_site_fract_y
  _atom_site_fract_z
  _atom_site_occupancy
  Mn  Mn1       1.0  0.24999996672117983  0.250000122239152  0.2499998251682176  1.0000
  Mn  Mn2       1.0  0.7500001746179198  0.7500000898826832  0.7499999955126171  1.0000
  Cd  Cd1       1.0  0.9999999952579787  3.715903038947529e-09  0.9999999261795193  1.0000
  Cl  Cl1       1.0  0.26333985347296673  0.2633398661707914  0.7366601723018533  1.0000
  Cl  Cl2       1.0  0.7366601440543401  0.7366601099912041  0.2633398488838747  1.0000
  Cl  Cl3       1.0  0.7366601094946699  0.26333989408795033  0.2633399509261369  1.0000
  Cl  Cl4       1.0  0.2633397244875949  0.7366601155171721  0.7366601823378902  1.0000
  Cl  Cl5       1.0  0.2633399088294194  0.7366600508183162  0.26333993923372817  1.0000
  Cl  Cl6       1.0  0.7366601253803201  0.2633397469803361  0.7366601618945217  1.0000
