data_image0
_chemical_formula_structural       Mn2CoI6
_chemical_formula_sum              "Mn2 Co1 I6"
_cell_length_a       7.478092292118318
_cell_length_b       7.478092422299822
_cell_length_c       7.4780922920389274
_cell_angle_alpha    59.999999883702074
_cell_angle_beta     60.00000034411502
_cell_angle_gamma    59.999999165207136

_space_group_name_H-M_alt    "P 1"
_space_group_IT_number       1

loop_
  _space_group_symop_operation_xyz
  'x, y, z'

loop_
  _atom_site_type_symbol
  _atom_site_label
  _atom_site_symmetry_multiplicity
  _atom_site_fract_x
  _atom_site_fract_y
  _atom_site_fract_z
  _atom_site_occupancy
  Mn  Mn1       1.0  0.2499999565352912  0.25000010560544517  0.249999913976187  1.0000
  Mn  Mn2       1.0  0.750000012887273  0.7499999286631517  0.7500000382055838  1.0000
  Co  Co1       1.0  0.9999999858220018  1.4739994319885036e-08  5.0679596189631865e-09  1.0000
  I   I1        1.0  0.24946581408904744  0.24946581883035862  0.7505342160411178  1.0000
  I   I2        1.0  0.7505342119518442  0.7505341613915915  0.24946580572850383  1.0000
  I   I3        1.0  0.7505342094572415  0.24946580656091896  0.2494658097348906  1.0000
  I   I4        1.0  0.2494658336786092  0.7505341409054883  0.7505342118415863  1.0000
  I   I5        1.0  0.24946579379225806  0.7505341766077812  0.24946580856115913  1.0000
  I   I6        1.0  0.7505341789058607  0.2494658478341525  0.7505341896878281  1.0000
