data_image0
_chemical_formula_structural       Mn2CoO6
_chemical_formula_sum              "Mn2 Co1 O6"
_cell_length_a       5.218749029599989
_cell_length_b       5.2187485989980695
_cell_length_c       5.218748986176146
_cell_angle_alpha    59.99999906994845
_cell_angle_beta     60.00000233927315
_cell_angle_gamma    60.00000025967057

_space_group_name_H-M_alt    "P 1"
_space_group_IT_number       1

loop_
  _space_group_symop_operation_xyz
  'x, y, z'

loop_
  _atom_site_type_symbol
  _atom_site_label
  _atom_site_symmetry_multiplicity
  _atom_site_fract_x
  _atom_site_fract_y
  _atom_site_fract_z
  _atom_site_occupancy
  Mn  Mn1       1.0  0.250000188336601  0.24999988788864774  0.2499998588534381  1.0000
  Mn  Mn2       1.0  0.7499998088985864  0.7499999804862513  0.7500000050680764  1.0000
  Co  Co1       1.0  5.13838126304418e-10  1.1734085709821853e-08  0.9999999670496857  1.0000
  O   O1        1.0  0.24322428387626846  0.24322425108299403  0.7567756325432985  1.0000
  O   O2        1.0  0.756775752602798  0.7567757252454972  0.24322422484536355  1.0000
  O   O3        1.0  0.756775857365993  0.2432241904857005  0.24322430560247577  1.0000
  O   O4        1.0  0.24322424700957043  0.7567758609409446  0.7567757447200518  1.0000
  O   O5        1.0  0.24322427248220507  0.7567757856687516  0.24322420254901297  1.0000
  O   O6        1.0  0.756775495263641  0.2432243596305754  0.7567760438825817  1.0000
