data_image0
_chemical_formula_structural       Mn2CdF6
_chemical_formula_sum              "Mn2 Cd1 F6"
_cell_length_a       5.572389203888326
_cell_length_b       5.572389129196278
_cell_length_c       5.572389136793262
_cell_angle_alpha    59.99999940091746
_cell_angle_beta     59.999999293540746
_cell_angle_gamma    60.000000218443496

_space_group_name_H-M_alt    "P 1"
_space_group_IT_number       1

loop_
  _space_group_symop_operation_xyz
  'x, y, z'

loop_
  _atom_site_type_symbol
  _atom_site_label
  _atom_site_symmetry_multiplicity
  _atom_site_fract_x
  _atom_site_fract_y
  _atom_site_fract_z
  _atom_site_occupancy
  Mn  Mn1       1.0  0.24999977268488272  0.2500001172135555  0.25000000913503223  1.0000
  Mn  Mn2       1.0  0.7499999760103777  0.7499999692093609  0.7499999452743153  1.0000
  Cd  Cd1       1.0  1.023521149165878e-08  6.5936433374549844e-09  2.5682257993762367e-08  1.0000
  F   F1        1.0  0.2664892130996127  0.26648916982796544  0.7335108039764229  1.0000
  F   F2        1.0  0.7335108383462036  0.7335107605453951  0.2664892601277871  1.0000
  F   F3        1.0  0.7335109127410018  0.2664892473891527  0.2664891501027294  1.0000
  F   F4        1.0  0.26648921254917834  0.7335107225460684  0.7335108716548668  1.0000
  F   F5        1.0  0.26648919701100726  0.733510815840386  0.2664892095350224  1.0000
  F   F6        1.0  0.7335108810786475  0.2664892024482189  0.7335107147397754  1.0000
