data_image0
_chemical_formula_structural       Mn2CuI6
_chemical_formula_sum              "Mn2 Cu1 I6"
_cell_length_a       7.462497048140577
_cell_length_b       7.462496964672298
_cell_length_c       7.462497095897648
_cell_angle_alpha    60.00000042605711
_cell_angle_beta     60.00000005884317
_cell_angle_gamma    60.00000010817291

_space_group_name_H-M_alt    "P 1"
_space_group_IT_number       1

loop_
  _space_group_symop_operation_xyz
  'x, y, z'

loop_
  _atom_site_type_symbol
  _atom_site_label
  _atom_site_symmetry_multiplicity
  _atom_site_fract_x
  _atom_site_fract_y
  _atom_site_fract_z
  _atom_site_occupancy
  Mn  Mn1       1.0  0.2500000164716733  0.25000003826870837  0.24999999006022125  1.0000
  Mn  Mn2       1.0  0.7500000257572714  0.7499997865661627  0.7500003029134973  1.0000
  Cu  Cu1       1.0  9.924956498416563e-09  0.9999999934352007  0.9999999983199214  1.0000
  I   I1        1.0  0.25428432709527116  0.2542843726243793  0.7457156384060926  1.0000
  I   I2        1.0  0.7457156368092874  0.7457156918256626  0.2542842817948186  1.0000
  I   I3        1.0  0.7457156580495665  0.2542844722147178  0.25428420372534744  1.0000
  I   I4        1.0  0.25428430619823095  0.7457156283417194  0.745715650009522  1.0000
  I   I5        1.0  0.2542843717222594  0.7457156412831347  0.2542843079738787  1.0000
  I   I6        1.0  0.7457156472777476  0.25428437393091274  0.7457156280577815  1.0000
