data_image0
_chemical_formula_structural       Mn2CF6
_chemical_formula_sum              "Mn2 C1 F6"
_cell_length_a       5.035444368736162
_cell_length_b       5.035444648361238
_cell_length_c       5.035443948927641
_cell_angle_alpha    60.000001595204054
_cell_angle_beta     60.000001042103435
_cell_angle_gamma    60.00000043291462

_space_group_name_H-M_alt    "P 1"
_space_group_IT_number       1

loop_
  _space_group_symop_operation_xyz
  'x, y, z'

loop_
  _atom_site_type_symbol
  _atom_site_label
  _atom_site_symmetry_multiplicity
  _atom_site_fract_x
  _atom_site_fract_y
  _atom_site_fract_z
  _atom_site_occupancy
  Mn  Mn1       1.0  0.2500001473638757  0.24999975751103048  0.2500000099639738  1.0000
  Mn  Mn2       1.0  0.7499998539131574  0.7500005348696394  0.7499996947987835  1.0000
  C   C1        1.0  4.4992150969905107e-07  0.9999998954133481  0.9999996386699572  1.0000
  F   F1        1.0  0.2187503155069612  0.21875037705907413  0.7812496580499279  1.0000
  F   F2        1.0  0.7812495227106055  0.781249406981832  0.21875053731439084  1.0000
  F   F3        1.0  0.7812493425157724  0.21875051171544377  0.21875068369966882  1.0000
  F   F4        1.0  0.2187503836792909  0.7812496152723756  0.7812497397669819  1.0000
  F   F5        1.0  0.21875053646822254  0.781249433740942  0.21875045939319016  1.0000
  F   F6        1.0  0.781249454090421  0.21875049866706922  0.7812495856170321  1.0000
