data_image0
_chemical_formula_structural       Mn2CrBr6
_chemical_formula_sum              "Mn2 Cr1 Br6"
_cell_length_a       6.938715165810246
_cell_length_b       6.938715340303011
_cell_length_c       6.938715375953556
_cell_angle_alpha    59.99999823863721
_cell_angle_beta     59.99999867539965
_cell_angle_gamma    60.00000172404628

_space_group_name_H-M_alt    "P 1"
_space_group_IT_number       1

loop_
  _space_group_symop_operation_xyz
  'x, y, z'

loop_
  _atom_site_type_symbol
  _atom_site_label
  _atom_site_symmetry_multiplicity
  _atom_site_fract_x
  _atom_site_fract_y
  _atom_site_fract_z
  _atom_site_occupancy
  Mn  Mn1       1.0  0.24999986712039413  0.2500002933156904  0.2500000058106861  1.0000
  Mn  Mn2       1.0  0.7499998728300384  0.7500001703813873  0.7499996772991636  1.0000
  Cr  Cr1       1.0  0.9999998600275206  0.9999999805840143  3.751379700377517e-07  1.0000
  Br  Br1       1.0  0.2500403877565088  0.2500402165104515  0.7499596919501602  1.0000
  Br  Br2       1.0  0.7499598396464088  0.7499596435262621  0.2500403504721277  1.0000
  Br  Br3       1.0  0.7499597338721158  0.2500401920083137  0.2500404169370363  1.0000
  Br  Br4       1.0  0.2500405618818434  0.749959457982836  0.7499595608607529  1.0000
  Br  Br5       1.0  0.2500403248147387  0.7499595899481349  0.25004037446703986  1.0000
  Br  Br6       1.0  0.74995954899691  0.25004045718798606  0.7499595551994789  1.0000
