data_image0
_chemical_formula_structural       Mn2CCl6
_chemical_formula_sum              "Mn2 C1 Cl6"
_cell_length_a       6.513473968310794
_cell_length_b       6.513474059788525
_cell_length_c       6.5134740032946175
_cell_angle_alpha    60.000000722370615
_cell_angle_beta     60.00000036162026
_cell_angle_gamma    60.000000691051426

_space_group_name_H-M_alt    "P 1"
_space_group_IT_number       1

loop_
  _space_group_symop_operation_xyz
  'x, y, z'

loop_
  _atom_site_type_symbol
  _atom_site_label
  _atom_site_symmetry_multiplicity
  _atom_site_fract_x
  _atom_site_fract_y
  _atom_site_fract_z
  _atom_site_occupancy
  Mn  Mn1       1.0  0.24999984377762471  0.2500000828323912  0.25000004288958544  1.0000
  Mn  Mn2       1.0  0.7499999031912681  0.7500000849088931  0.7500003008839246  1.0000
  C   C1        1.0  0.9999999596375868  9.401625243599494e-09  0.9999999770984183  1.0000
  Cl  Cl1       1.0  0.2517657370079464  0.25176570200598697  0.7482342772360525  1.0000
  Cl  Cl2       1.0  0.748234358613375  0.7482342175323866  0.251765600252084  1.0000
  Cl  Cl3       1.0  0.7482343317815219  0.251765718419328  0.25176564292608267  1.0000
  Cl  Cl4       1.0  0.2517657217752361  0.7482342688107483  0.7482342770185291  1.0000
  Cl  Cl5       1.0  0.2517658102917632  0.7482342504487565  0.25176563573137634  1.0000
  Cl  Cl6       1.0  0.7482343291300088  0.25176566532896694  0.7482342570482776  1.0000
