data_image0
_chemical_formula_structural       Mn2CS6
_chemical_formula_sum              "Mn2 C1 S6"
_cell_length_a       5.988688628882979
_cell_length_b       5.988688676368063
_cell_length_c       5.988688665261543
_cell_angle_alpha    60.00000002422173
_cell_angle_beta     60.00000028867414
_cell_angle_gamma    60.00000087915476

_space_group_name_H-M_alt    "P 1"
_space_group_IT_number       1

loop_
  _space_group_symop_operation_xyz
  'x, y, z'

loop_
  _atom_site_type_symbol
  _atom_site_label
  _atom_site_symmetry_multiplicity
  _atom_site_fract_x
  _atom_site_fract_y
  _atom_site_fract_z
  _atom_site_occupancy
  Mn  Mn1       1.0  0.2500000270822539  0.24999999439136356  0.2500000030373432  1.0000
  Mn  Mn2       1.0  0.749999971205989  0.7500000240760281  0.7499999919171929  1.0000
  C   C1        1.0  0.9999999884512518  0.9999999652333526  2.315769778406598e-08  1.0000
  S   S1        1.0  0.2209690320970233  0.2209690714757402  0.7790308696093976  1.0000
  S   S2        1.0  0.7790310157780803  0.7790309081348109  0.22096896301755273  1.0000
  S   S3        1.0  0.7790309754452655  0.2209690621449009  0.22096905444081213  1.0000
  S   S4        1.0  0.22096906723023668  0.7790308867891961  0.7790309965019224  1.0000
  S   S5        1.0  0.22096899845770307  0.7790309575898656  0.22096912137738187  1.0000
  S   S6        1.0  0.7790309096157978  0.22096914063630424  0.7790309589562385  1.0000
