data_image0
_chemical_formula_structural       Mn2CrCl6
_chemical_formula_sum              "Mn2 Cr1 Cl6"
_cell_length_a       6.563928793506035
_cell_length_b       6.563928651270476
_cell_length_c       6.563929256492367
_cell_angle_alpha    59.9999969315919
_cell_angle_beta     59.99999827767856
_cell_angle_gamma    59.999998084287014

_space_group_name_H-M_alt    "P 1"
_space_group_IT_number       1

loop_
  _space_group_symop_operation_xyz
  'x, y, z'

loop_
  _atom_site_type_symbol
  _atom_site_label
  _atom_site_symmetry_multiplicity
  _atom_site_fract_x
  _atom_site_fract_y
  _atom_site_fract_z
  _atom_site_occupancy
  Mn  Mn1       1.0  0.24999991013659462  0.2500000406674634  0.2500000153205324  1.0000
  Mn  Mn2       1.0  0.7499998965911034  0.7499999559398037  0.7500000824656968  1.0000
  Cr  Cr1       1.0  5.4747404452307425e-08  0.9999999888047694  7.11560544817424e-08  1.0000
  Cl  Cl1       1.0  0.24965143304711077  0.24965145537936428  0.75034857572103  1.0000
  Cl  Cl2       1.0  0.7503485624443377  0.7503485132398268  0.2496514614825733  1.0000
  Cl  Cl3       1.0  0.7503485719946859  0.24965140899484428  0.24965145153554047  1.0000
  Cl  Cl4       1.0  0.24965150068641073  0.7503485708195777  0.7503484744426037  1.0000
  Cl  Cl5       1.0  0.24965151784872913  0.7503486261897615  0.24965135696553808  1.0000
  Cl  Cl6       1.0  0.750348556643312  0.2496514431865052  0.7503485019975232  1.0000
