data_image0
_chemical_formula_structural       Mn2CoF6
_chemical_formula_sum              "Mn2 Co1 F6"
_cell_length_a       5.277094593430528
_cell_length_b       5.277094518625778
_cell_length_c       5.277094488098568
_cell_angle_alpha    59.999999843499275
_cell_angle_beta     59.99999951332759
_cell_angle_gamma    59.999999385650824

_space_group_name_H-M_alt    "P 1"
_space_group_IT_number       1

loop_
  _space_group_symop_operation_xyz
  'x, y, z'

loop_
  _atom_site_type_symbol
  _atom_site_label
  _atom_site_symmetry_multiplicity
  _atom_site_fract_x
  _atom_site_fract_y
  _atom_site_fract_z
  _atom_site_occupancy
  Mn  Mn1       1.0  0.2500000396153514  0.24999993136794368  0.24999999196693762  1.0000
  Mn  Mn2       1.0  0.7499999904285022  0.7499999496021011  0.7500002390278523  1.0000
  Co  Co1       1.0  0.9999999555735979  3.4813045573225345e-08  0.9999999972267498  1.0000
  F   F1        1.0  0.24880051409778792  0.24880046433082362  0.7511995121252667  1.0000
  F   F2        1.0  0.7511995300456585  0.7511995187574877  0.24880037461828447  1.0000
  F   F3        1.0  0.7511994606008636  0.2488005929454349  0.24880043929744047  1.0000
  F   F4        1.0  0.24880044973244414  0.7511995224324496  0.7511995277956456  1.0000
  F   F5        1.0  0.24880055521951086  0.7511995384823061  0.24880045067845769  1.0000
  F   F6        1.0  0.7511995159552011  0.2488004422851355  0.7511994616095388  1.0000
