data_image0
_chemical_formula_structural       Mn2FeI6
_chemical_formula_sum              "Mn2 Fe1 I6"
_cell_length_a       7.511688462635594
_cell_length_b       7.511688448351687
_cell_length_c       7.5116881811507055
_cell_angle_alpha    59.99999933196894
_cell_angle_beta     59.99999977153951
_cell_angle_gamma    59.99999818492013

_space_group_name_H-M_alt    "P 1"
_space_group_IT_number       1

loop_
  _space_group_symop_operation_xyz
  'x, y, z'

loop_
  _atom_site_type_symbol
  _atom_site_label
  _atom_site_symmetry_multiplicity
  _atom_site_fract_x
  _atom_site_fract_y
  _atom_site_fract_z
  _atom_site_occupancy
  Mn  Mn1       1.0  0.25000022056536086  0.24999999580833515  0.249999842877201  1.0000
  Mn  Mn2       1.0  0.7499998797701968  0.7500000412299422  0.749999770216288  1.0000
  Fe  Fe1       1.0  2.350698765727406e-07  0.9999998989119621  0.9999998371584554  1.0000
  I   I1        1.0  0.2317348041818029  0.23173460320656553  0.7682652930133635  1.0000
  I   I2        1.0  0.7682650322074666  0.7682652756778481  0.231734902551375  1.0000
  I   I3        1.0  0.7682651109060374  0.23173480907143829  0.23173489363532557  1.0000
  I   I4        1.0  0.23173466498325265  0.7682653942729581  0.7682654055821915  1.0000
  I   I5        1.0  0.23173475399134824  0.7682652525150508  0.23173465581103478  1.0000
  I   I6        1.0  0.7682652966421579  0.2317347307182989  0.7682654070822869  1.0000
