data_image0
_chemical_formula_structural       Mn2FeBr6
_chemical_formula_sum              "Mn2 Fe1 Br6"
_cell_length_a       6.8823381093763665
_cell_length_b       6.882337844144142
_cell_length_c       6.882337877135374
_cell_angle_alpha    60.00000095111496
_cell_angle_beta     60.000001868303784
_cell_angle_gamma    59.99999692297424

_space_group_name_H-M_alt    "P 1"
_space_group_IT_number       1

loop_
  _space_group_symop_operation_xyz
  'x, y, z'

loop_
  _atom_site_type_symbol
  _atom_site_label
  _atom_site_symmetry_multiplicity
  _atom_site_fract_x
  _atom_site_fract_y
  _atom_site_fract_z
  _atom_site_occupancy
  Mn  Mn1       1.0  0.24999989761291297  0.25000030045827487  0.2499998683651645  1.0000
  Mn  Mn2       1.0  0.7500001624503065  0.7499996485731948  0.7500002684005131  1.0000
  Fe  Fe1       1.0  5.507265691589973e-09  3.3811406649204393e-08  0.999999941109809  1.0000
  Br  Br1       1.0  0.2374807091657773  0.2374810628019573  0.7625191148677362  1.0000
  Br  Br2       1.0  0.7625191213128522  0.7625189307182124  0.2374809197446045  1.0000
  Br  Br3       1.0  0.762519196983691  0.237480952063861  0.2374807036862254  1.0000
  Br  Br4       1.0  0.2374808308266528  0.7625191339927849  0.7625192165049095  1.0000
  Br  Br5       1.0  0.2374808872916533  0.7625190986277064  0.23748078085745253  1.0000
  Br  Br6       1.0  0.7625191877697537  0.23748085574240427  0.7625191713804549  1.0000
