data_image0
_chemical_formula_structural       Mn2FeCl6
_chemical_formula_sum              "Mn2 Fe1 Cl6"
_cell_length_a       6.472952655730666
_cell_length_b       6.472952475934897
_cell_length_c       6.4729526442070275
_cell_angle_alpha    59.99999891668223
_cell_angle_beta     60.00000002156254
_cell_angle_gamma    59.99999900194607

_space_group_name_H-M_alt    "P 1"
_space_group_IT_number       1

loop_
  _space_group_symop_operation_xyz
  'x, y, z'

loop_
  _atom_site_type_symbol
  _atom_site_label
  _atom_site_symmetry_multiplicity
  _atom_site_fract_x
  _atom_site_fract_y
  _atom_site_fract_z
  _atom_site_occupancy
  Mn  Mn1       1.0  0.2500003877334451  0.24999982654175798  0.2499998626919615  1.0000
  Mn  Mn2       1.0  0.7500001229416247  0.749999555309121  0.7500008180900907  1.0000
  Fe  Fe1       1.0  0.9999998994717219  1.8920965486849564e-09  0.9999999118228782  1.0000
  Cl  Cl1       1.0  0.24919212140185487  0.24919220867225375  0.7508078106486906  1.0000
  Cl  Cl2       1.0  0.7508076847122069  0.750808136255603  0.24919179540267744  1.0000
  Cl  Cl3       1.0  0.7508077966301576  0.24919245145704497  0.24919184173511705  1.0000
  Cl  Cl4       1.0  0.2491918783945871  0.7508079388811207  0.750807912208277  1.0000
  Cl  Cl5       1.0  0.24919223155666806  0.7508078379073547  0.24919209255488348  1.0000
  Cl  Cl6       1.0  0.7508078754653942  0.2491920377806388  0.7508079390831133  1.0000
