data_image0
_chemical_formula_structural       Mn2GeBr6
_chemical_formula_sum              "Mn2 Ge1 Br6"
_cell_length_a       7.009488311769691
_cell_length_b       7.009488326383837
_cell_length_c       7.009488234222487
_cell_angle_alpha    60.000000556661284
_cell_angle_beta     60.000000483379246
_cell_angle_gamma    59.999999915222844

_space_group_name_H-M_alt    "P 1"
_space_group_IT_number       1

loop_
  _space_group_symop_operation_xyz
  'x, y, z'

loop_
  _atom_site_type_symbol
  _atom_site_label
  _atom_site_symmetry_multiplicity
  _atom_site_fract_x
  _atom_site_fract_y
  _atom_site_fract_z
  _atom_site_occupancy
  Mn  Mn1       1.0  0.24999988699358006  0.25000024738536436  0.24999991370154367  1.0000
  Mn  Mn2       1.0  0.7499998807224897  0.7499999593804104  0.7499999341700611  1.0000
  Ge  Ge1       1.0  0.9999999679011307  4.1934411656833074e-08  0.9999999722560261  1.0000
  Br  Br1       1.0  0.25502043583072886  0.25502042764676736  0.7449795852394037  1.0000
  Br  Br2       1.0  0.7449796985483875  0.7449794698527208  0.25502041939671893  1.0000
  Br  Br3       1.0  0.7449795088218233  0.25502041951979054  0.2550205251196129  1.0000
  Br  Br4       1.0  0.25502050323733055  0.7449795286504456  0.7449796266188555  1.0000
  Br  Br5       1.0  0.25502048470696864  0.7449794984881822  0.2550204449232238  1.0000
  Br  Br6       1.0  0.744979634163744  0.25502040600037473  0.7449795825188561  1.0000
