data_image0
_chemical_formula_structural       Mn2GeCl6
_chemical_formula_sum              "Mn2 Ge1 Cl6"
_cell_length_a       6.648351064495183
_cell_length_b       6.648350866521954
_cell_length_c       6.648350928466083
_cell_angle_alpha    59.999999391788386
_cell_angle_beta     60.00000321798562
_cell_angle_gamma    60.00000190571196

_space_group_name_H-M_alt    "P 1"
_space_group_IT_number       1

loop_
  _space_group_symop_operation_xyz
  'x, y, z'

loop_
  _atom_site_type_symbol
  _atom_site_label
  _atom_site_symmetry_multiplicity
  _atom_site_fract_x
  _atom_site_fract_y
  _atom_site_fract_z
  _atom_site_occupancy
  Mn  Mn1       1.0  0.250000008041066  0.24999992612865432  0.2500000665954628  1.0000
  Mn  Mn2       1.0  0.7500000385745134  0.7500000528705515  0.7500003035002812  1.0000
  Ge  Ge1       1.0  0.9999999744382924  3.500138987278443e-08  2.0850409039847338e-08  1.0000
  Cl  Cl1       1.0  0.25020661369461744  0.25020656415921566  0.7497933448474623  1.0000
  Cl  Cl2       1.0  0.7497933739381885  0.7497934719475279  0.25020648319410393  1.0000
  Cl  Cl3       1.0  0.7497932888495553  0.25020668836292215  0.2502066108388556  1.0000
  Cl  Cl4       1.0  0.25020661027451196  0.7497934048513519  0.7497932103413272  1.0000
  Cl  Cl5       1.0  0.25020665182493984  0.7497933929258268  0.25020658890455905  1.0000
  Cl  Cl6       1.0  0.7497934347044899  0.2502064663317855  0.749793372873604  1.0000
