data_image0
_chemical_formula_structural       Mn2GeI6
_chemical_formula_sum              "Mn2 Ge1 I6"
_cell_length_a       7.689914484375664
_cell_length_b       7.689914540605696
_cell_length_c       7.689914483478985
_cell_angle_alpha    59.99999966549531
_cell_angle_beta     60.00000008993849
_cell_angle_gamma    59.99999880960158

_space_group_name_H-M_alt    "P 1"
_space_group_IT_number       1

loop_
  _space_group_symop_operation_xyz
  'x, y, z'

loop_
  _atom_site_type_symbol
  _atom_site_label
  _atom_site_symmetry_multiplicity
  _atom_site_fract_x
  _atom_site_fract_y
  _atom_site_fract_z
  _atom_site_occupancy
  Mn  Mn1       1.0  0.2500001164771571  0.24999995807566944  0.2500000044770705  1.0000
  Mn  Mn2       1.0  0.7499998667248593  0.7500000159740967  0.7500001045862931  1.0000
  Ge  Ge1       1.0  3.003155743113447e-09  0.0  0.9999999984984221  1.0000
  I   I1        1.0  0.2604819342133116  0.26048192182412727  0.7395180822597036  1.0000
  I   I2        1.0  0.7395180682203305  0.7395180936348993  0.2604818963520644  1.0000
  I   I3        1.0  0.739518069821325  0.2604819235538599  0.26048189520855375  1.0000
  I   I4        1.0  0.2604819621129865  0.7395180934978302  0.739518054852502  1.0000
  I   I5        1.0  0.2604819333247831  0.7395180569880712  0.26048188392416594  1.0000
  I   I6        1.0  0.7395180479202248  0.2604819409516535  0.739518073729028  1.0000
