data_image0
_chemical_formula_structural       Mn2GeSe6
_chemical_formula_sum              "Mn2 Ge1 Se6"
_cell_length_a       6.6554645304494295
_cell_length_b       6.655464182747781
_cell_length_c       6.655464432790408
_cell_angle_alpha    60.000000739817025
_cell_angle_beta     60.00000162890333
_cell_angle_gamma    60.00000118732869

_space_group_name_H-M_alt    "P 1"
_space_group_IT_number       1

loop_
  _space_group_symop_operation_xyz
  'x, y, z'

loop_
  _atom_site_type_symbol
  _atom_site_label
  _atom_site_symmetry_multiplicity
  _atom_site_fract_x
  _atom_site_fract_y
  _atom_site_fract_z
  _atom_site_occupancy
  Mn  Mn1       1.0  0.24999872825800432  0.2500004023883166  0.2500017347986705  1.0000
  Mn  Mn2       1.0  0.74999896898851  0.7500013801445987  0.7499986683006732  1.0000
  Ge  Ge1       1.0  0.9999999649849486  1.65618855036515e-08  2.2749305617891806e-08  1.0000
  Se  Se1       1.0  0.26074303886813566  0.260741688931882  0.7392571204648304  1.0000
  Se  Se2       1.0  0.739258137455908  0.7392571566266655  0.26074272610321714  1.0000
  Se  Se3       1.0  0.7392576805019596  0.2607417971290758  0.26074294708579376  1.0000
  Se  Se4       1.0  0.2607429717415945  0.7392579648538226  0.739257295305082  1.0000
  Se  Se5       1.0  0.2607421087490314  0.7392573102531539  0.26074264887927634  1.0000
  Se  Se6       1.0  0.7392583958150144  0.26074228059023885  0.7392568468986811  1.0000
