data_image0
_chemical_formula_structural       Mn2GeF6
_chemical_formula_sum              "Mn2 Ge1 F6"
_cell_length_a       5.587423234279185
_cell_length_b       5.587422536827819
_cell_length_c       5.587423011671085
_cell_angle_alpha    60.00000041874291
_cell_angle_beta     59.99999935226595
_cell_angle_gamma    59.999999025683834

_space_group_name_H-M_alt    "P 1"
_space_group_IT_number       1

loop_
  _space_group_symop_operation_xyz
  'x, y, z'

loop_
  _atom_site_type_symbol
  _atom_site_label
  _atom_site_symmetry_multiplicity
  _atom_site_fract_x
  _atom_site_fract_y
  _atom_site_fract_z
  _atom_site_occupancy
  Mn  Mn1       1.0  0.25000002621475653  0.25000010763910413  0.24999995231481642  1.0000
  Mn  Mn2       1.0  0.7499999828140929  0.7499999656265968  0.7499999349569801  1.0000
  Ge  Ge1       1.0  0.9999999945523443  0.9999999605445863  6.540514578198683e-08  1.0000
  F   F1        1.0  0.23178493043287285  0.23178484857415446  0.7682151267300391  1.0000
  F   F2        1.0  0.7682150988251227  0.7682151392048187  0.23178492561084935  1.0000
  F   F3        1.0  0.7682150617087791  0.2317849129172611  0.2317849230666534  1.0000
  F   F4        1.0  0.23178491868131837  0.76821507266974  0.7682150653174793  1.0000
  F   F5        1.0  0.23178493663757122  0.7682151498738075  0.23178478259326932  1.0000
  F   F6        1.0  0.768215088612576  0.23178483132925812  0.7682151622862654  1.0000
