data_image0
_chemical_formula_structural       Mn2GeS6
_chemical_formula_sum              "Mn2 Ge1 S6"
_cell_length_a       6.337371566649532
_cell_length_b       6.337371635369432
_cell_length_c       6.337371402110068
_cell_angle_alpha    59.999999986749984
_cell_angle_beta     59.9999993818611
_cell_angle_gamma    59.99999921886825

_space_group_name_H-M_alt    "P 1"
_space_group_IT_number       1

loop_
  _space_group_symop_operation_xyz
  'x, y, z'

loop_
  _atom_site_type_symbol
  _atom_site_label
  _atom_site_symmetry_multiplicity
  _atom_site_fract_x
  _atom_site_fract_y
  _atom_site_fract_z
  _atom_site_occupancy
  Mn  Mn1       1.0  0.2499999458979933  0.25000002500162405  0.25000004556028943  1.0000
  Mn  Mn2       1.0  0.7500000408256967  0.750000028623061  0.7499999304926691  1.0000
  Ge  Ge1       1.0  2.3061416481728142e-08  0.9999999690787927  1.8131367022075925e-08  1.0000
  S   S1        1.0  0.2578750494762256  0.2578750143924047  0.7421248882922571  1.0000
  S   S2        1.0  0.7421250075369737  0.7421248884913962  0.2578750869599158  1.0000
  S   S3        1.0  0.7421248652296376  0.25787506779334224  0.25787512199934376  1.0000
  S   S4        1.0  0.25787506640942365  0.7421249761684663  0.7421248738038376  1.0000
  S   S5        1.0  0.2578750435735825  0.7421249241777269  0.2578751591861525  1.0000
  S   S6        1.0  0.742124961168515  0.25787510818862786  0.7421248626691237  1.0000
