data_image0
_chemical_formula_structural       Mn2GeTe6
_chemical_formula_sum              "Mn2 Ge1 Te6"
_cell_length_a       7.261131131005386
_cell_length_b       7.261130974419154
_cell_length_c       7.261130982527514
_cell_angle_alpha    60.00000024604133
_cell_angle_beta     60.00000051123256
_cell_angle_gamma    59.99999992218631

_space_group_name_H-M_alt    "P 1"
_space_group_IT_number       1

loop_
  _space_group_symop_operation_xyz
  'x, y, z'

loop_
  _atom_site_type_symbol
  _atom_site_label
  _atom_site_symmetry_multiplicity
  _atom_site_fract_x
  _atom_site_fract_y
  _atom_site_fract_z
  _atom_site_occupancy
  Mn  Mn1       1.0  0.2499998938300191  0.2500001365220091  0.2500000165479961  1.0000
  Mn  Mn2       1.0  0.7500000609121905  0.7499997483742771  0.7500001134058231  1.0000
  Ge  Ge1       1.0  0.9999999935590909  0.9999999763860089  1.3650254161504589e-08  1.0000
  Te  Te1       1.0  0.26660600953538366  0.26660615479549726  0.7333939149694099  1.0000
  Te  Te2       1.0  0.7333939682060855  0.733393913952576  0.26660602204115125  1.0000
  Te  Te3       1.0  0.7333939318964804  0.2666061610217616  0.26660597688439586  1.0000
  Te  Te4       1.0  0.26660608972980415  0.7333938857990344  0.7333939615421592  1.0000
  Te  Te5       1.0  0.26660605528252596  0.7333938722032338  0.2666060983659681  1.0000
  Te  Te6       1.0  0.7333939948883238  0.2666061510035712  0.7333938857971574  1.0000
