data_image0
_chemical_formula_structural       Mn2HgBr6
_chemical_formula_sum              "Mn2 Hg1 Br6"
_cell_length_a       7.101334070787838
_cell_length_b       7.101334131266853
_cell_length_c       7.101334130764476
_cell_angle_alpha    59.99999971008837
_cell_angle_beta     59.999998746326376
_cell_angle_gamma    59.99999935997232

_space_group_name_H-M_alt    "P 1"
_space_group_IT_number       1

loop_
  _space_group_symop_operation_xyz
  'x, y, z'

loop_
  _atom_site_type_symbol
  _atom_site_label
  _atom_site_symmetry_multiplicity
  _atom_site_fract_x
  _atom_site_fract_y
  _atom_site_fract_z
  _atom_site_occupancy
  Mn  Mn1       1.0  0.2499999587541763  0.2500000410076947  0.2499998786805452  1.0000
  Mn  Mn2       1.0  0.7500000138695215  0.7500000126442864  0.7499999970050393  1.0000
  Hg  Hg1       1.0  7.768890195526357e-08  0.9999999620572881  0.9999999829432766  1.0000
  Br  Br1       1.0  0.26830154717253996  0.26830151483973574  0.7316985226455054  1.0000
  Br  Br2       1.0  0.731698426634782  0.7316984767241718  0.26830153416821634  1.0000
  Br  Br3       1.0  0.7316984337437809  0.26830153493198206  0.26830160478127435  1.0000
  Br  Br4       1.0  0.2683015544188571  0.7316984428345761  0.7316984686516973  1.0000
  Br  Br5       1.0  0.2683015799494569  0.7316984823311699  0.26830151389727286  1.0000
  Br  Br6       1.0  0.7316984199561101  0.2683015333780995  0.7316984938554816  1.0000
