data_image0
_chemical_formula_structural       Mn2HgI6
_chemical_formula_sum              "Mn2 Hg1 I6"
_cell_length_a       7.7584871171937735
_cell_length_b       7.758487033494288
_cell_length_c       7.758487142588462
_cell_angle_alpha    60.00000002555935
_cell_angle_beta     59.99999936634826
_cell_angle_gamma    59.99999999321666

_space_group_name_H-M_alt    "P 1"
_space_group_IT_number       1

loop_
  _space_group_symop_operation_xyz
  'x, y, z'

loop_
  _atom_site_type_symbol
  _atom_site_label
  _atom_site_symmetry_multiplicity
  _atom_site_fract_x
  _atom_site_fract_y
  _atom_site_fract_z
  _atom_site_occupancy
  Mn  Mn1       1.0  0.24999998043842103  0.2500000400141282  0.25000002047526393  1.0000
  Mn  Mn2       1.0  0.7499999901611876  0.7499999779695312  0.7499999688368594  1.0000
  Hg  Hg1       1.0  3.428017060681525e-09  0.9999999763211914  2.8170150708678352e-08  1.0000
  I   I1        1.0  0.2668824569629146  0.2668824661785033  0.7331175444702802  1.0000
  I   I2        1.0  0.7331175795735766  0.7331175281263479  0.26688245980231573  1.0000
  I   I3        1.0  0.7331175392367046  0.26688244213799334  0.2668824730902253  1.0000
  I   I4        1.0  0.26688249029416994  0.7331175553240322  0.7331175253731255  1.0000
  I   I5        1.0  0.2668824161979233  0.733117543911958  0.2668824602357276  1.0000
  I   I6        1.0  0.7331175420593199  0.2668824709145269  0.7331175200703217  1.0000
