data_image0
_chemical_formula_structural       Mn2HgF6
_chemical_formula_sum              "Mn2 Hg1 F6"
_cell_length_a       5.662104551976678
_cell_length_b       5.662104340270135
_cell_length_c       5.662104668761334
_cell_angle_alpha    60.00000097804912
_cell_angle_beta     60.00000208416257
_cell_angle_gamma    60.0000012766661

_space_group_name_H-M_alt    "P 1"
_space_group_IT_number       1

loop_
  _space_group_symop_operation_xyz
  'x, y, z'

loop_
  _atom_site_type_symbol
  _atom_site_label
  _atom_site_symmetry_multiplicity
  _atom_site_fract_x
  _atom_site_fract_y
  _atom_site_fract_z
  _atom_site_occupancy
  Mn  Mn1       1.0  0.2500000706696444  0.24999979622969834  0.2499999952355206  1.0000
  Mn  Mn2       1.0  0.7499998461911326  0.7500001068236735  0.7499997848223929  1.0000
  Hg  Hg1       1.0  0.9999999811722567  0.9999999891847181  0.9999999353457646  1.0000
  F   F1        1.0  0.2658814452826271  0.2658811960230457  0.7341187403980239  1.0000
  F   F2        1.0  0.7341185997672585  0.7341187935525776  0.2658814215215922  1.0000
  F   F3        1.0  0.7341187276758497  0.26588122235757705  0.265881385989004  1.0000
  F   F4        1.0  0.2658814367908443  0.734118672043583  0.7341186843336927  1.0000
  F   F5        1.0  0.26588126029214804  0.7341187891802469  0.2658813649902165  1.0000
  F   F6        1.0  0.7341186533910558  0.2658814231901388  0.7341186858686358  1.0000
