data_image0
_chemical_formula_structural       Mn2HgCl6
_chemical_formula_sum              "Mn2 Hg1 Cl6"
_cell_length_a       6.679600004414775
_cell_length_b       6.679600143580996
_cell_length_c       6.679599945385192
_cell_angle_alpha    60.000001724956476
_cell_angle_beta     60.000001516764364
_cell_angle_gamma    60.00000018708108

_space_group_name_H-M_alt    "P 1"
_space_group_IT_number       1

loop_
  _space_group_symop_operation_xyz
  'x, y, z'

loop_
  _atom_site_type_symbol
  _atom_site_label
  _atom_site_symmetry_multiplicity
  _atom_site_fract_x
  _atom_site_fract_y
  _atom_site_fract_z
  _atom_site_occupancy
  Mn  Mn1       1.0  0.2500001752680897  0.2500000018045159  0.2499997920167548  1.0000
  Mn  Mn2       1.0  0.7499999111190517  0.750000148431248  0.7499998214774086  1.0000
  Hg  Hg1       1.0  0.9999999558567966  1.833560212771854e-08  5.631957410615211e-08  1.0000
  Cl  Cl1       1.0  0.2651014464532875  0.26510144860242624  0.7348985990242975  1.0000
  Cl  Cl2       1.0  0.7348985359005297  0.7348985366129285  0.26510151578516394  1.0000
  Cl  Cl3       1.0  0.7348985547637767  0.26510136208799107  0.26510152477059634  1.0000
  Cl  Cl4       1.0  0.26510146590307027  0.7348984874439131  0.7348985938112058  1.0000
  Cl  Cl5       1.0  0.26510144784892486  0.7348985553335993  0.2651014439671106  1.0000
  Cl  Cl6       1.0  0.734898507352062  0.265101433548876  0.7348986601287708  1.0000
