data_image0
_chemical_formula_structural       Mn2InCl6
_chemical_formula_sum              "Mn2 In1 Cl6"
_cell_length_a       6.695419444248062
_cell_length_b       6.695419723326091
_cell_length_c       6.695419142729017
_cell_angle_alpha    60.00000095157593
_cell_angle_beta     59.99999923207942
_cell_angle_gamma    59.99999793024165

_space_group_name_H-M_alt    "P 1"
_space_group_IT_number       1

loop_
  _space_group_symop_operation_xyz
  'x, y, z'

loop_
  _atom_site_type_symbol
  _atom_site_label
  _atom_site_symmetry_multiplicity
  _atom_site_fract_x
  _atom_site_fract_y
  _atom_site_fract_z
  _atom_site_occupancy
  Mn  Mn1       1.0  0.2500001425525733  0.24999997816798175  0.25000004356547784  1.0000
  Mn  Mn2       1.0  0.7499998269694126  0.749999961942385  0.750000426282728  1.0000
  In  In1       1.0  0.9999999706636339  3.109687546273213e-08  6.5875377449696466e-09  1.0000
  Cl  Cl1       1.0  0.2603191164858546  0.26031916719403186  0.7396808226555169  1.0000
  Cl  Cl2       1.0  0.7396808359453972  0.7396808552315995  0.26031900819568193  1.0000
  Cl  Cl3       1.0  0.7396808825704639  0.260319153474035  0.2603189764620095  1.0000
  Cl  Cl4       1.0  0.2603190411341642  0.7396808982192434  0.7396808914576395  1.0000
  Cl  Cl5       1.0  0.26031924197185907  0.7396809027176107  0.26031893681571744  1.0000
  Cl  Cl6       1.0  0.7396809469764656  0.26031904653889476  0.7396808795716362  1.0000
