data_image0
_chemical_formula_structural       Mn2InBr6
_chemical_formula_sum              "Mn2 In1 Br6"
_cell_length_a       7.091790758159748
_cell_length_b       7.0917907441365164
_cell_length_c       7.091790802240938
_cell_angle_alpha    59.9999994263686
_cell_angle_beta     60.00000068949953
_cell_angle_gamma    59.99999951800102

_space_group_name_H-M_alt    "P 1"
_space_group_IT_number       1

loop_
  _space_group_symop_operation_xyz
  'x, y, z'

loop_
  _atom_site_type_symbol
  _atom_site_label
  _atom_site_symmetry_multiplicity
  _atom_site_fract_x
  _atom_site_fract_y
  _atom_site_fract_z
  _atom_site_occupancy
  Mn  Mn1       1.0  0.2500000294768677  0.2499999006046174  0.2500000739929332  1.0000
  Mn  Mn2       1.0  0.7499999870940218  0.7500002060948155  0.749999820275094  1.0000
  In  In1       1.0  2.077180498740953e-08  2.0723875056646957e-08  0.9999999806622412  1.0000
  Br  Br1       1.0  0.2628905528288332  0.2628903944490322  0.7371095131214709  1.0000
  Br  Br2       1.0  0.7371094536793331  0.7371095568213367  0.2628905146553689  1.0000
  Br  Br3       1.0  0.7371094898110273  0.26289043602093026  0.2628905864484337  1.0000
  Br  Br4       1.0  0.26289050529959  0.7371095152494384  0.7371095006102616  1.0000
  Br  Br5       1.0  0.2628904272340705  0.7371095461120316  0.2628904921250324  1.0000
  Br  Br6       1.0  0.7371095295554863  0.2628904224282336  0.7371095236745422  1.0000
