data_image0
_chemical_formula_structural       Mn2MgBr6
_chemical_formula_sum              "Mn2 Mg1 Br6"
_cell_length_a       6.923015107314304
_cell_length_b       6.923015161117048
_cell_length_c       6.92301516508128
_cell_angle_alpha    59.99999973865258
_cell_angle_beta     59.9999993383961
_cell_angle_gamma    59.9999998087682

_space_group_name_H-M_alt    "P 1"
_space_group_IT_number       1

loop_
  _space_group_symop_operation_xyz
  'x, y, z'

loop_
  _atom_site_type_symbol
  _atom_site_label
  _atom_site_symmetry_multiplicity
  _atom_site_fract_x
  _atom_site_fract_y
  _atom_site_fract_z
  _atom_site_occupancy
  Mn  Mn1       1.0  0.24999977641765697  0.250000041565699  0.2500001096772397  1.0000
  Mn  Mn2       1.0  0.7500000745454487  0.7499999053297244  0.7499999259568035  1.0000
  Mg  Mg1       1.0  0.9999999992079506  1.2383641913067886e-08  4.0426838310970124e-08  1.0000
  Br  Br1       1.0  0.25949247812238674  0.2594925748307863  0.7405074498910319  1.0000
  Br  Br2       1.0  0.7405075822551446  0.7405074693646807  0.2594925002752703  1.0000
  Br  Br3       1.0  0.7405075256587026  0.25949251102410853  0.259492494153805  1.0000
  Br  Br4       1.0  0.2594925189502564  0.7405074854058823  0.7405074588903751  1.0000
  Br  Br5       1.0  0.25949249953633385  0.7405074541832012  0.2594925766007284  1.0000
  Br  Br6       1.0  0.7405075437920541  0.2594925510922484  0.7405074448838743  1.0000
