data_image0
_chemical_formula_structural       Mn2MgCl6
_chemical_formula_sum              "Mn2 Mg1 Cl6"
_cell_length_a       6.487378658217974
_cell_length_b       6.48737884916261
_cell_length_c       6.487378875669795
_cell_angle_alpha    60.00000060164429
_cell_angle_beta     59.99999935248486
_cell_angle_gamma    59.99999988696115

_space_group_name_H-M_alt    "P 1"
_space_group_IT_number       1

loop_
  _space_group_symop_operation_xyz
  'x, y, z'

loop_
  _atom_site_type_symbol
  _atom_site_label
  _atom_site_symmetry_multiplicity
  _atom_site_fract_x
  _atom_site_fract_y
  _atom_site_fract_z
  _atom_site_occupancy
  Mn  Mn1       1.0  0.24999989697818606  0.25000001363174307  0.25000005962406885  1.0000
  Mn  Mn2       1.0  0.7500000982336933  0.7499998388911451  0.7500001255512285  1.0000
  Mg  Mg1       1.0  1.947113364408348e-08  5.6636654391944896e-09  0.9999999566035086  1.0000
  Cl  Cl1       1.0  0.2571611595321293  0.25716130885133215  0.7428388119649779  1.0000
  Cl  Cl2       1.0  0.7428387494137711  0.7428387116936421  0.257161233679172  1.0000
  Cl  Cl3       1.0  0.7428388234229577  0.257161312320959  0.2571611401024977  1.0000
  Cl  Cl4       1.0  0.2571612110857939  0.7428388441519934  0.7428387223867824  1.0000
  Cl  Cl5       1.0  0.25716127784372694  0.7428386691440355  0.2571611969554907  1.0000
  Cl  Cl6       1.0  0.7428387503937641  0.25716128721272485  0.7428387810591515  1.0000
