data_image0
_chemical_formula_structural       Mn2MgI6
_chemical_formula_sum              "Mn2 Mg1 I6"
_cell_length_a       7.661105171592748
_cell_length_b       7.661105057238893
_cell_length_c       7.661105133829848
_cell_angle_alpha    60.0000000554759
_cell_angle_beta     60.000000226532954
_cell_angle_gamma    60.00000072905369

_space_group_name_H-M_alt    "P 1"
_space_group_IT_number       1

loop_
  _space_group_symop_operation_xyz
  'x, y, z'

loop_
  _atom_site_type_symbol
  _atom_site_label
  _atom_site_symmetry_multiplicity
  _atom_site_fract_x
  _atom_site_fract_y
  _atom_site_fract_z
  _atom_site_occupancy
  Mn  Mn1       1.0  0.2499999827550878  0.24999990963486077  0.2500000511414184  1.0000
  Mn  Mn2       1.0  0.7499999924395301  0.750000152547632  0.7500000435185956  1.0000
  Mg  Mg1       1.0  0.9999999528345851  0.9999999968026934  4.296645391365486e-09  1.0000
  I   I1        1.0  0.26008357982259983  0.2600834780413075  0.7399164623149261  1.0000
  I   I2        1.0  0.7399164582810507  0.7399164994125754  0.2600834605136169  1.0000
  I   I3        1.0  0.7399164680482889  0.2600835523416159  0.2600835204201387  1.0000
  I   I4        1.0  0.2600834997173218  0.7399164778678158  0.7399164360002495  1.0000
  I   I5        1.0  0.2600836022134965  0.7399164678889842  0.2600835306717647  1.0000
  I   I6        1.0  0.7399164583470372  0.2600834648026148  0.7399164907642242  1.0000
