data_image0
_chemical_formula_structural       Mn2NiBr6
_chemical_formula_sum              "Mn2 Ni1 Br6"
_cell_length_a       6.799953731148404
_cell_length_b       6.799953654855931
_cell_length_c       6.799953885068821
_cell_angle_alpha    59.999998285684114
_cell_angle_beta     59.99999846130037
_cell_angle_gamma    59.999999328336806

_space_group_name_H-M_alt    "P 1"
_space_group_IT_number       1

loop_
  _space_group_symop_operation_xyz
  'x, y, z'

loop_
  _atom_site_type_symbol
  _atom_site_label
  _atom_site_symmetry_multiplicity
  _atom_site_fract_x
  _atom_site_fract_y
  _atom_site_fract_z
  _atom_site_occupancy
  Mn  Mn1       1.0  0.25000007039440836  0.250000072941321  0.24999983269623507  1.0000
  Mn  Mn2       1.0  0.7499998279275237  0.7500001918073445  0.749999748813412  1.0000
  Ni  Ni1       1.0  0.9999999967244794  0.9999999639778461  0.9999999652367038  1.0000
  Br  Br1       1.0  0.25098296560615224  0.2509828977225948  0.7490170826115992  1.0000
  Br  Br2       1.0  0.7490171261169686  0.7490169905945603  0.2509830168866899  1.0000
  Br  Br3       1.0  0.7490169768424165  0.2509829256144822  0.2509830595740699  1.0000
  Br  Br4       1.0  0.25098307760782407  0.74901698791818  0.7490171738949498  1.0000
  Br  Br5       1.0  0.2509828929041515  0.749017085246176  0.2509830401104625  1.0000
  Br  Br6       1.0  0.7490170630209085  0.25098288952414816  0.7490170825896745  1.0000
