data_image0
_chemical_formula_structural       Mn2NiI6
_chemical_formula_sum              "Mn2 Ni1 I6"
_cell_length_a       7.459926644448262
_cell_length_b       7.459926547162876
_cell_length_c       7.459926647963537
_cell_angle_alpha    59.99999959521618
_cell_angle_beta     60.00000039231839
_cell_angle_gamma    59.99999978555314

_space_group_name_H-M_alt    "P 1"
_space_group_IT_number       1

loop_
  _space_group_symop_operation_xyz
  'x, y, z'

loop_
  _atom_site_type_symbol
  _atom_site_label
  _atom_site_symmetry_multiplicity
  _atom_site_fract_x
  _atom_site_fract_y
  _atom_site_fract_z
  _atom_site_occupancy
  Mn  Mn1       1.0  0.24999996002881059  0.24999998007608853  0.25000004500966616  1.0000
  Mn  Mn2       1.0  0.7500000916753108  0.749999964854746  0.7500000410502432  1.0000
  Ni  Ni1       1.0  1.8778826983982188e-10  0.999999990149408  0.9999999927669401  1.0000
  I   I1        1.0  0.2519029770520202  0.2519030482506444  0.7480969831165619  1.0000
  I   I2        1.0  0.7480969939266823  0.7480969902608141  0.2519029919570758  1.0000
  I   I3        1.0  0.7480969963715907  0.25190303123263846  0.25190299845264835  1.0000
  I   I4        1.0  0.2519029690567765  0.7480970007117584  0.7480969880416707  1.0000
  I   I5        1.0  0.2519030143720819  0.7480969979556793  0.2519029846120483  1.0000
  I   I6        1.0  0.7480970013393157  0.2519029945863499  0.7480969723130163  1.0000
