data_image0
_chemical_formula_structural       Mn2NiF6
_chemical_formula_sum              "Mn2 Ni1 F6"
_cell_length_a       5.27434975475713
_cell_length_b       5.274349837521361
_cell_length_c       5.274349811467566
_cell_angle_alpha    60.00000075582706
_cell_angle_beta     60.0000008814737
_cell_angle_gamma    60.000000816743984

_space_group_name_H-M_alt    "P 1"
_space_group_IT_number       1

loop_
  _space_group_symop_operation_xyz
  'x, y, z'

loop_
  _atom_site_type_symbol
  _atom_site_label
  _atom_site_symmetry_multiplicity
  _atom_site_fract_x
  _atom_site_fract_y
  _atom_site_fract_z
  _atom_site_occupancy
  Mn  Mn1       1.0  0.25000010145232837  0.2499999517655154  0.24999998903249884  1.0000
  Mn  Mn2       1.0  0.7500001066126003  0.7499999690783389  0.7499999313440914  1.0000
  Ni  Ni1       1.0  0.9999999715394168  0.0  0.9999999933746402  1.0000
  F   F1        1.0  0.2535317910737116  0.2535319555942306  0.746468129893367  1.0000
  F   F2        1.0  0.7464680586101186  0.7464681603041258  0.25353191385782153  1.0000
  F   F3        1.0  0.7464681210609334  0.2535318182695566  0.2535318768871244  1.0000
  F   F4        1.0  0.25353185347996077  0.746468179202852  0.7464681238331723  1.0000
  F   F5        1.0  0.253531852845559  0.7464681363993936  0.253531847632078  1.0000
  F   F6        1.0  0.746468142195627  0.2535318192756217  0.7464681978641989  1.0000
