data_image0
_chemical_formula_structural       Mn2NiS6
_chemical_formula_sum              "Mn2 Ni1 S6"
_cell_length_a       6.100929286410783
_cell_length_b       6.100929048681851
_cell_length_c       6.1009291983931
_cell_angle_alpha    59.999999005839655
_cell_angle_beta     60.00000034555639
_cell_angle_gamma    59.99999996735422

_space_group_name_H-M_alt    "P 1"
_space_group_IT_number       1

loop_
  _space_group_symop_operation_xyz
  'x, y, z'

loop_
  _atom_site_type_symbol
  _atom_site_label
  _atom_site_symmetry_multiplicity
  _atom_site_fract_x
  _atom_site_fract_y
  _atom_site_fract_z
  _atom_site_occupancy
  Mn  Mn1       1.0  0.25000001055843957  0.2499999918584589  0.2499999999688937  1.0000
  Mn  Mn2       1.0  0.7499999809735503  0.7500000538668138  0.7499999402171983  1.0000
  Ni  Ni1       1.0  0.9999999834055687  1.0037363549627818e-08  3.278223638435539e-08  1.0000
  S   S1        1.0  0.2506976938583231  0.25069763805211  0.7493023386303526  1.0000
  S   S2        1.0  0.7493023661933722  0.7493023213518348  0.2506977055240365  1.0000
  S   S3        1.0  0.7493023014790698  0.2506977046102347  0.25069766027986357  1.0000
  S   S4        1.0  0.2506976742424554  0.7493023431225104  0.7493023261459943  1.0000
  S   S5        1.0  0.25069768202351167  0.7493022876962298  0.2506976717171023  1.0000
  S   S6        1.0  0.7493023093379546  0.25069766769276886  0.7493023071660102  1.0000
