data_image0
_chemical_formula_structural       Mn2NbI6
_chemical_formula_sum              "Mn2 Nb1 I6"
_cell_length_a       7.84136707502445
_cell_length_b       7.8413669239784225
_cell_length_c       7.841366991473371
_cell_angle_alpha    60.00000001586368
_cell_angle_beta     59.99999978881735
_cell_angle_gamma    59.99999795817232

_space_group_name_H-M_alt    "P 1"
_space_group_IT_number       1

loop_
  _space_group_symop_operation_xyz
  'x, y, z'

loop_
  _atom_site_type_symbol
  _atom_site_label
  _atom_site_symmetry_multiplicity
  _atom_site_fract_x
  _atom_site_fract_y
  _atom_site_fract_z
  _atom_site_occupancy
  Mn  Mn1       1.0  0.2500000050387173  0.2500000514717062  0.2500000202524144  1.0000
  Mn  Mn2       1.0  0.7499999525713262  0.7500000107201092  0.7499999062690164  1.0000
  Nb  Nb1       1.0  6.92850513209431e-08  2.1866630416463542e-08  0.9999999429465682  1.0000
  I   I1        1.0  0.2506255795120291  0.2506255507933495  0.7493744405376016  1.0000
  I   I2        1.0  0.7493743774753596  0.7493743895700892  0.2506256428559328  1.0000
  I   I3        1.0  0.7493744778422115  0.2506254992141081  0.2506255715092389  1.0000
  I   I4        1.0  0.25062556401859865  0.7493744692635699  0.7493744451881623  1.0000
  I   I5        1.0  0.2506255488071513  0.7493744571303008  0.2506255756297462  1.0000
  I   I6        1.0  0.7493744246005687  0.25062554883303295  0.7493744527255088  1.0000
