data_image0
_chemical_formula_structural       Mn2NiO6
_chemical_formula_sum              "Mn2 Ni1 O6"
_cell_length_a       5.1355618052634275
_cell_length_b       5.1355619919804
_cell_length_c       5.135562244477184
_cell_angle_alpha    59.99999965971543
_cell_angle_beta     60.0000004552928
_cell_angle_gamma    60.000000803293865

_space_group_name_H-M_alt    "P 1"
_space_group_IT_number       1

loop_
  _space_group_symop_operation_xyz
  'x, y, z'

loop_
  _atom_site_type_symbol
  _atom_site_label
  _atom_site_symmetry_multiplicity
  _atom_site_fract_x
  _atom_site_fract_y
  _atom_site_fract_z
  _atom_site_occupancy
  Mn  Mn1       1.0  0.24999997713051408  0.25000001785670256  0.24999996592018192  1.0000
  Mn  Mn2       1.0  0.7500000438603731  0.749999972485846  0.7499999930590316  1.0000
  Ni  Ni1       1.0  2.434707430506511e-08  0.9999999809213501  1.2602011295345659e-09  1.0000
  O   O1        1.0  0.2483299329631161  0.24832987630291514  0.7516701420170656  1.0000
  O   O2        1.0  0.7516700988842033  0.7516700949609837  0.24832985417576697  1.0000
  O   O3        1.0  0.7516701315172573  0.2483298941410208  0.2483298963930488  1.0000
  O   O4        1.0  0.24832986192338138  0.751670165361634  0.7516700748837459  1.0000
  O   O5        1.0  0.24832988140128662  0.7516700569525364  0.24832995191590113  1.0000
  O   O6        1.0  0.7516700898511298  0.24832994769899971  0.7516700948774858  1.0000
