data_image0
_chemical_formula_structural       Mn2NbF6
_chemical_formula_sum              "Mn2 Nb1 F6"
_cell_length_a       5.666859052163594
_cell_length_b       5.666859053622079
_cell_length_c       5.6668591607509695
_cell_angle_alpha    59.99999874910607
_cell_angle_beta     59.99999940536975
_cell_angle_gamma    60.0000012847346

_space_group_name_H-M_alt    "P 1"
_space_group_IT_number       1

loop_
  _space_group_symop_operation_xyz
  'x, y, z'

loop_
  _atom_site_type_symbol
  _atom_site_label
  _atom_site_symmetry_multiplicity
  _atom_site_fract_x
  _atom_site_fract_y
  _atom_site_fract_z
  _atom_site_occupancy
  Mn  Mn1       1.0  0.2500000471471199  0.24999984996851318  0.25000008379645366  1.0000
  Mn  Mn2       1.0  0.7500002098309756  0.7499998459955751  0.7499999068021075  1.0000
  Nb  Nb1       1.0  0.9999999784087965  2.809613411936445e-08  0.999999982630367  1.0000
  F   F1        1.0  0.25123276841479286  0.25123313268471215  0.7487670799681473  1.0000
  F   F2        1.0  0.7487669903412087  0.7487671165570897  0.2512329872167117  1.0000
  F   F3        1.0  0.7487670334772698  0.25123292102530725  0.251232810394619  1.0000
  F   F4        1.0  0.25123294335200663  0.7487670407714323  0.7487671573630439  1.0000
  F   F5        1.0  0.2512328802674878  0.7487671805315385  0.2512329347406401  1.0000
  F   F6        1.0  0.7487671434874394  0.251232885004775  0.7487670529752907  1.0000
