data_image0
_chemical_formula_structural       Mn2PdI6
_chemical_formula_sum              "Mn2 Pd1 I6"
_cell_length_a       7.548975098585705
_cell_length_b       7.548975080760188
_cell_length_c       7.548974960682309
_cell_angle_alpha    60.00000037864158
_cell_angle_beta     60.00000079377332
_cell_angle_gamma    59.999999578212226

_space_group_name_H-M_alt    "P 1"
_space_group_IT_number       1

loop_
  _space_group_symop_operation_xyz
  'x, y, z'

loop_
  _atom_site_type_symbol
  _atom_site_label
  _atom_site_symmetry_multiplicity
  _atom_site_fract_x
  _atom_site_fract_y
  _atom_site_fract_z
  _atom_site_occupancy
  Mn  Mn1       1.0  0.2499999942517373  0.2500000331099465  0.24999998635320017  1.0000
  Mn  Mn2       1.0  0.7499999531226714  0.7499999954963116  0.7500000032730212  1.0000
  Pd  Pd1       1.0  1.3859297368223128e-08  0.9999999951328034  0.9999999517894054  1.0000
  I   I1        1.0  0.25424222280332  0.254242171770286  0.7457578027033915  1.0000
  I   I2        1.0  0.7457577686064594  0.7457577935624156  0.2542422323083681  1.0000
  I   I3        1.0  0.7457577972396232  0.25424222846146405  0.2542421757348778  1.0000
  I   I4        1.0  0.2542422140232765  0.7457577920327992  0.7457578416397882  1.0000
  I   I5        1.0  0.25424218857491215  0.7457578013188085  0.25424220298412264  1.0000
  I   I6        1.0  0.7457578452000795  0.25424218834987566  0.7457578026510893  1.0000
