data_image0
_chemical_formula_structural       Mn2PbBr6
_chemical_formula_sum              "Mn2 Pb1 Br6"
_cell_length_a       7.147680759979914
_cell_length_b       7.147680859577552
_cell_length_c       7.147680603852925
_cell_angle_alpha    60.000000025772614
_cell_angle_beta     60.00000070406359
_cell_angle_gamma    59.99999972095401

_space_group_name_H-M_alt    "P 1"
_space_group_IT_number       1

loop_
  _space_group_symop_operation_xyz
  'x, y, z'

loop_
  _atom_site_type_symbol
  _atom_site_label
  _atom_site_symmetry_multiplicity
  _atom_site_fract_x
  _atom_site_fract_y
  _atom_site_fract_z
  _atom_site_occupancy
  Mn  Mn1       1.0  0.24999991986315684  0.2500001383343425  0.2499999488226168  1.0000
  Mn  Mn2       1.0  0.7500000803273715  0.750000058598003  0.7500000699625352  1.0000
  Pb  Pb1       1.0  3.660191715805354e-08  0.9999999725842285  4.1575750360692795e-08  1.0000
  Br  Br1       1.0  0.2668522592405477  0.2668522889555775  0.7331477215916946  1.0000
  Br  Br2       1.0  0.7331477554279051  0.7331476852236325  0.2668522656227067  1.0000
  Br  Br3       1.0  0.7331478009963248  0.26685220294317363  0.26685224932196716  1.0000
  Br  Br4       1.0  0.2668522007986503  0.7331476838482673  0.7331477726334507  1.0000
  Br  Br5       1.0  0.2668522309366707  0.733147758474911  0.266852182618477  1.0000
  Br  Br6       1.0  0.7331477110347407  0.26685221570430095  0.7331477388134118  1.0000
