data_image0
_chemical_formula_structural       Mn2PdBr6
_chemical_formula_sum              "Mn2 Pd1 Br6"
_cell_length_a       6.960329253076499
_cell_length_b       6.960329214680602
_cell_length_c       6.96032926776553
_cell_angle_alpha    59.999999374790335
_cell_angle_beta     59.99999944371004
_cell_angle_gamma    59.99999960708969

_space_group_name_H-M_alt    "P 1"
_space_group_IT_number       1

loop_
  _space_group_symop_operation_xyz
  'x, y, z'

loop_
  _atom_site_type_symbol
  _atom_site_label
  _atom_site_symmetry_multiplicity
  _atom_site_fract_x
  _atom_site_fract_y
  _atom_site_fract_z
  _atom_site_occupancy
  Mn  Mn1       1.0  0.24999995474419628  0.2500001676727195  0.25000003143307803  1.0000
  Mn  Mn2       1.0  0.7500000636547921  0.7499999047515447  0.7500004373928044  1.0000
  Pd  Pd1       1.0  2.3242902658219874e-08  0.9999999700866695  0.9999999415565274  1.0000
  Br  Br1       1.0  0.252705321576697  0.2527054014173849  0.74729461132185  1.0000
  Br  Br2       1.0  0.7472946959856556  0.7472945988629655  0.2527051828210553  1.0000
  Br  Br3       1.0  0.7472945664348597  0.25270546945445593  0.25270528009095883  1.0000
  Br  Br4       1.0  0.25270527629688566  0.7472946223254939  0.7472946476671237  1.0000
  Br  Br5       1.0  0.25270544504724896  0.747294551363254  0.25270526864714005  1.0000
  Br  Br6       1.0  0.7472946508578476  0.2527053134273045  0.7472945986074121  1.0000
