data_image0
_chemical_formula_structural       Mn2PtI6
_chemical_formula_sum              "Mn2 Pt1 I6"
_cell_length_a       7.5810551201413
_cell_length_b       7.581055108276915
_cell_length_c       7.581055078689775
_cell_angle_alpha    60.00000040244954
_cell_angle_beta     60.00000003694276
_cell_angle_gamma    60.0000001038518

_space_group_name_H-M_alt    "P 1"
_space_group_IT_number       1

loop_
  _space_group_symop_operation_xyz
  'x, y, z'

loop_
  _atom_site_type_symbol
  _atom_site_label
  _atom_site_symmetry_multiplicity
  _atom_site_fract_x
  _atom_site_fract_y
  _atom_site_fract_z
  _atom_site_occupancy
  Mn  Mn1       1.0  0.2500000043059585  0.25000003550089045  0.24999998702289572  1.0000
  Mn  Mn2       1.0  0.7500000291207675  0.7499999756444562  0.7500000566495991  1.0000
  Pt  Pt1       1.0  0.9999999961538802  0.9999999886912653  0.999999985153108  1.0000
  I   I1        1.0  0.2519660660491205  0.25196610122920754  0.7480339207373383  1.0000
  I   I2        1.0  0.7480339078062251  0.7480338921452699  0.25196606399453825  1.0000
  I   I3        1.0  0.7480339037821379  0.25196610796674523  0.2519660580316413  1.0000
  I   I4        1.0  0.25196606333389204  0.7480339193339365  0.7480339262975672  1.0000
  I   I5        1.0  0.25196610856540247  0.7480339046026901  0.25196608262981585  1.0000
  I   I6        1.0  0.7480339229079191  0.2519660758475193  0.7480339193275349  1.0000
