data_image0
_chemical_formula_structural       Mn2PbCl6
_chemical_formula_sum              "Mn2 Pb1 Cl6"
_cell_length_a       6.793736914525216
_cell_length_b       6.793736831692754
_cell_length_c       6.793736999720254
_cell_angle_alpha    59.999999875195336
_cell_angle_beta     59.99999894496254
_cell_angle_gamma    59.99999913332434

_space_group_name_H-M_alt    "P 1"
_space_group_IT_number       1

loop_
  _space_group_symop_operation_xyz
  'x, y, z'

loop_
  _atom_site_type_symbol
  _atom_site_label
  _atom_site_symmetry_multiplicity
  _atom_site_fract_x
  _atom_site_fract_y
  _atom_site_fract_z
  _atom_site_occupancy
  Mn  Mn1       1.0  0.250000011241744  0.24999991393092413  0.2500000655015845  1.0000
  Mn  Mn2       1.0  0.7499999182103769  0.7500001546238595  0.749999953642228  1.0000
  Pb  Pb1       1.0  6.429525643948145e-08  0.999999985577953  0.9999999824231146  1.0000
  Cl  Cl1       1.0  0.2648574228363807  0.2648572717686445  0.735142624878091  1.0000
  Cl  Cl2       1.0  0.7351426610457545  0.7351426904235432  0.2648573187139733  1.0000
  Cl  Cl3       1.0  0.7351426397163469  0.2648573157507547  0.26485744690298585  1.0000
  Cl  Cl4       1.0  0.26485731385793004  0.7351427059323777  0.7351426601566589  1.0000
  Cl  Cl5       1.0  0.264857368034764  0.7351426289880156  0.26485735726765014  1.0000
  Cl  Cl6       1.0  0.7351426031723572  0.2648573295986607  0.7351426003063589  1.0000
