data_image0
_chemical_formula_structural       Mn2PtF6
_chemical_formula_sum              "Mn2 Pt1 F6"
_cell_length_a       5.439680935202877
_cell_length_b       5.439681125123513
_cell_length_c       5.4396809504440675
_cell_angle_alpha    60.00000111438898
_cell_angle_beta     60.000000332991924
_cell_angle_gamma    60.000002418663804

_space_group_name_H-M_alt    "P 1"
_space_group_IT_number       1

loop_
  _space_group_symop_operation_xyz
  'x, y, z'

loop_
  _atom_site_type_symbol
  _atom_site_label
  _atom_site_symmetry_multiplicity
  _atom_site_fract_x
  _atom_site_fract_y
  _atom_site_fract_z
  _atom_site_occupancy
  Mn  Mn1       1.0  0.2500001285422254  0.24999986482927064  0.24999993707666718  1.0000
  Mn  Mn2       1.0  0.7500000714800907  0.7499997791109039  0.7499999384954131  1.0000
  Pt  Pt1       1.0  0.9999999588954287  4.0527020574274014e-08  3.337895125813777e-08  1.0000
  F   F1        1.0  0.2592212628573675  0.259221412117808  0.740778587994764  1.0000
  F   F2        1.0  0.7407786410890786  0.7407786933801035  0.259221350065488  1.0000
  F   F3        1.0  0.7407786087241065  0.2592215091293038  0.25922122282545534  1.0000
  F   F4        1.0  0.25922130806542876  0.7407786278896242  0.7407788364435066  1.0000
  F   F5        1.0  0.2592212912127871  0.7407786531461533  0.2592213946153438  1.0000
  F   F6        1.0  0.740778716769804  0.25922141407623955  0.7407786907222201  1.0000
