data_image0
_chemical_formula_structural       Mn2PS6
_chemical_formula_sum              "Mn2 P1 S6"
_cell_length_a       6.322916375674688
_cell_length_b       6.3229166847771445
_cell_length_c       6.322916355392907
_cell_angle_alpha    59.999999612004345
_cell_angle_beta     59.99999911096799
_cell_angle_gamma    60.00000016935209

_space_group_name_H-M_alt    "P 1"
_space_group_IT_number       1

loop_
  _space_group_symop_operation_xyz
  'x, y, z'

loop_
  _atom_site_type_symbol
  _atom_site_label
  _atom_site_symmetry_multiplicity
  _atom_site_fract_x
  _atom_site_fract_y
  _atom_site_fract_z
  _atom_site_occupancy
  Mn  Mn1       1.0  0.25000000124041777  0.25000002861345283  0.2499999511003853  1.0000
  Mn  Mn2       1.0  0.7499999933368604  0.7500000238565633  0.7500000001936584  1.0000
  P   P1        1.0  0.9999999793577415  2.9054903364018447e-08  0.9999999768150931  1.0000
  S   S1        1.0  0.2424159752553853  0.24241590634707774  0.7575841317322154  1.0000
  S   S2        1.0  0.757584055865201  0.7575841131940456  0.24241594902316105  1.0000
  S   S3        1.0  0.7575839678697212  0.2424159543594423  0.24241598679118834  1.0000
  S   S4        1.0  0.24241594941787536  0.7575840012608975  0.7575840594802796  1.0000
  S   S5        1.0  0.242416013229953  0.7575839787245817  0.24241594125689972  1.0000
  S   S6        1.0  0.7575840843180547  0.2424159730217713  0.7575839741195407  1.0000
