data_image0
_chemical_formula_structural       Mn2PtCl6
_chemical_formula_sum              "Mn2 Pt1 Cl6"
_cell_length_a       6.685524468015096
_cell_length_b       6.685524631697764
_cell_length_c       6.685524707969323
_cell_angle_alpha    59.999999963304
_cell_angle_beta     59.999997933731734
_cell_angle_gamma    59.99999860013184

_space_group_name_H-M_alt    "P 1"
_space_group_IT_number       1

loop_
  _space_group_symop_operation_xyz
  'x, y, z'

loop_
  _atom_site_type_symbol
  _atom_site_label
  _atom_site_symmetry_multiplicity
  _atom_site_fract_x
  _atom_site_fract_y
  _atom_site_fract_z
  _atom_site_occupancy
  Mn  Mn1       1.0  0.24999989828070415  0.24999992062239051  0.25000017868154234  1.0000
  Mn  Mn2       1.0  0.7499999989218071  0.7500001190945512  0.7499997761054118  1.0000
  Pt  Pt1       1.0  3.532753932606766e-08  4.946225319227257e-08  0.9999999695712549  1.0000
  Cl  Cl1       1.0  0.24766222260278284  0.24766224654655894  0.7523377258315581  1.0000
  Cl  Cl2       1.0  0.7523377512775467  0.7523376667668453  0.2476623914289944  1.0000
  Cl  Cl3       1.0  0.7523377985353101  0.24766221633219046  0.24766229271338594  1.0000
  Cl  Cl4       1.0  0.24766227274573957  0.7523377519392712  0.7523376601174117  1.0000
  Cl  Cl5       1.0  0.2476622334311368  0.7523377226667736  0.2476623536739696  1.0000
  Cl  Cl6       1.0  0.7523377865048779  0.24766231155436086  0.752337653181035  1.0000
