data_image0
_chemical_formula_structural       Mn2PtBr6
_chemical_formula_sum              "Mn2 Pt1 Br6"
_cell_length_a       7.013723324099516
_cell_length_b       7.013723176835198
_cell_length_c       7.0137233494641364
_cell_angle_alpha    59.999999263263305
_cell_angle_beta     60.00000043397782
_cell_angle_gamma    59.999999913055255

_space_group_name_H-M_alt    "P 1"
_space_group_IT_number       1

loop_
  _space_group_symop_operation_xyz
  'x, y, z'

loop_
  _atom_site_type_symbol
  _atom_site_label
  _atom_site_symmetry_multiplicity
  _atom_site_fract_x
  _atom_site_fract_y
  _atom_site_fract_z
  _atom_site_occupancy
  Mn  Mn1       1.0  0.24999984227318367  0.250000113621908  0.2500000653433691  1.0000
  Mn  Mn2       1.0  0.7499999712072701  0.7499998868505605  0.7500001252776912  1.0000
  Pt  Pt1       1.0  0.999999975869768  2.793939460633696e-08  8.079043969759482e-08  1.0000
  Br  Br1       1.0  0.24866996367078695  0.2486699393718889  0.7513300397606032  1.0000
  Br  Br2       1.0  0.7513300707365757  0.7513300156990647  0.24866994760988678  1.0000
  Br  Br3       1.0  0.7513300604014582  0.24867000221856794  0.2486698992582727  1.0000
  Br  Br4       1.0  0.24867006957662208  0.7513299772993567  0.7513299639434433  1.0000
  Br  Br5       1.0  0.2486699886744626  0.7513300337883194  0.24866989756719318  1.0000
  Br  Br6       1.0  0.7513300545951569  0.2486700033546064  0.7513299773247  1.0000
