data_image0
_chemical_formula_structural       Mn2PdCl6
_chemical_formula_sum              "Mn2 Pd1 Cl6"
_cell_length_a       6.5419436853596356
_cell_length_b       6.541943684640028
_cell_length_c       6.541943684935276
_cell_angle_alpha    60.00000000014896
_cell_angle_beta     59.999998998642724
_cell_angle_gamma    60.000000050959635

_space_group_name_H-M_alt    "P 1"
_space_group_IT_number       1

loop_
  _space_group_symop_operation_xyz
  'x, y, z'

loop_
  _atom_site_type_symbol
  _atom_site_label
  _atom_site_symmetry_multiplicity
  _atom_site_fract_x
  _atom_site_fract_y
  _atom_site_fract_z
  _atom_site_occupancy
  Mn  Mn1       1.0  0.2499998924177237  0.2499999677883947  0.2500001516997203  1.0000
  Mn  Mn2       1.0  0.7499999335802356  0.7499999445523122  0.7500002574269368  1.0000
  Pd  Pd1       1.0  2.513929320280453e-08  0.9999999775342944  1.1789382576989177e-07  1.0000
  Cl  Cl1       1.0  0.253186416310293  0.2531864043617638  0.746813565592181  1.0000
  Cl  Cl2       1.0  0.746813628269053  0.7468136465174631  0.2531862430815588  1.0000
  Cl  Cl3       1.0  0.746813667454682  0.25318636346296913  0.253186305040192  1.0000
  Cl  Cl4       1.0  0.25318640073139465  0.7468136218912818  0.746813570450601  1.0000
  Cl  Cl5       1.0  0.2531863803724567  0.7468136555809688  0.2531862711143406  1.0000
  Cl  Cl6       1.0  0.7468136543292009  0.25318641963610644  0.746813511986147  1.0000
