data_image0
_chemical_formula_structural       Mn2SiO6
_chemical_formula_sum              "Mn2 Si1 O6"
_cell_length_a       5.145263573760882
_cell_length_b       5.145263597593899
_cell_length_c       5.145263735505687
_cell_angle_alpha    60.00000012279335
_cell_angle_beta     60.00000325760357
_cell_angle_gamma    60.000002025789925

_space_group_name_H-M_alt    "P 1"
_space_group_IT_number       1

loop_
  _space_group_symop_operation_xyz
  'x, y, z'

loop_
  _atom_site_type_symbol
  _atom_site_label
  _atom_site_symmetry_multiplicity
  _atom_site_fract_x
  _atom_site_fract_y
  _atom_site_fract_z
  _atom_site_occupancy
  Mn  Mn1       1.0  0.25000000233858316  0.2499999378705335  0.25000003647190605  1.0000
  Mn  Mn2       1.0  0.7499998158696192  0.750000030222042  0.7499999470313653  1.0000
  Si  Si1       1.0  0.9999999978919336  0.9999999928589962  2.4059884663575826e-08  1.0000
  O   O1        1.0  0.2404792927926666  0.2404793326760903  0.7595206725180963  1.0000
  O   O2        1.0  0.7595207961704019  0.759520637796823  0.24047932601330954  1.0000
  O   O3        1.0  0.7595205921622614  0.24047927518436554  0.24047937160915356  1.0000
  O   O4        1.0  0.2404793373264113  0.7595207024295492  0.7595206758794547  1.0000
  O   O5        1.0  0.24047937445387502  0.7595207525254308  0.24047926193508684  1.0000
  O   O6        1.0  0.7595207207633243  0.24047936076755522  0.7595206348497286  1.0000
