data_image0
_chemical_formula_structural       Mn2SI6
_chemical_formula_sum              "Mn2 S1 I6"
_cell_length_a       7.611845249785989
_cell_length_b       7.611845155198673
_cell_length_c       7.611845153825335
_cell_angle_alpha    60.00000054830769
_cell_angle_beta     60.00000032826648
_cell_angle_gamma    60.000000088686164

_space_group_name_H-M_alt    "P 1"
_space_group_IT_number       1

loop_
  _space_group_symop_operation_xyz
  'x, y, z'

loop_
  _atom_site_type_symbol
  _atom_site_label
  _atom_site_symmetry_multiplicity
  _atom_site_fract_x
  _atom_site_fract_y
  _atom_site_fract_z
  _atom_site_occupancy
  Mn  Mn1       1.0  0.2500000032529695  0.24999992070791754  0.25000000249735777  1.0000
  Mn  Mn2       1.0  0.7500001046054694  0.7499999326776107  0.7499998590269614  1.0000
  S   S1        1.0  3.311325395284158e-08  0.9999999871280107  4.330528575793667e-09  1.0000
  I   I1        1.0  0.26431469474923075  0.2643147811734969  0.7356852716383284  1.0000
  I   I2        1.0  0.7356852139984495  0.7356852781638612  0.2643147927229361  1.0000
  I   I3        1.0  0.735685263851707  0.26431471831833253  0.26431478370596084  1.0000
  I   I4        1.0  0.26431474425152407  0.7356852750500802  0.7356852232360018  1.0000
  I   I5        1.0  0.26431470266432006  0.7356853009559267  0.2643148054451437  1.0000
  I   I6        1.0  0.7356852380003517  0.2643148082603901  0.7356852508616939  1.0000
