data_image0
_chemical_formula_structural       Mn2SeBr6
_chemical_formula_sum              "Mn2 Se1 Br6"
_cell_length_a       7.144680653496624
_cell_length_b       7.144680725944341
_cell_length_c       7.144680664931628
_cell_angle_alpha    59.999999216978715
_cell_angle_beta     59.99999893481941
_cell_angle_gamma    59.99999942027858

_space_group_name_H-M_alt    "P 1"
_space_group_IT_number       1

loop_
  _space_group_symop_operation_xyz
  'x, y, z'

loop_
  _atom_site_type_symbol
  _atom_site_label
  _atom_site_symmetry_multiplicity
  _atom_site_fract_x
  _atom_site_fract_y
  _atom_site_fract_z
  _atom_site_occupancy
  Mn  Mn1       1.0  0.24999989370643094  0.2500000611903774  0.2500000392754698  1.0000
  Mn  Mn2       1.0  0.7500000619664668  0.7500000155790227  0.7499999526138832  1.0000
  Se  Se1       1.0  1.0349627633276095e-08  2.2284667723739328e-08  0.9999999542903558  1.0000
  Br  Br1       1.0  0.25370446414739595  0.25370444076322446  0.7462955820606231  1.0000
  Br  Br2       1.0  0.7462954864333473  0.7462955640095575  0.25370447636597043  1.0000
  Br  Br3       1.0  0.7462955713592786  0.2537044760840344  0.25370443658330216  1.0000
  Br  Br4       1.0  0.25370448030622506  0.7462954824052074  0.7462955692491127  1.0000
  Br  Br5       1.0  0.2537044414816376  0.7462954830425849  0.2537044992441711  1.0000
  Br  Br6       1.0  0.7462955966019025  0.2537044531619898  0.746295495129063  1.0000
