data_image0
_chemical_formula_structural       Mn2ScBr6
_chemical_formula_sum              "Mn2 Sc1 Br6"
_cell_length_a       7.084013249907839
_cell_length_b       7.084013225642371
_cell_length_c       7.084013240878335
_cell_angle_alpha    60.00000015500186
_cell_angle_beta     59.999999807307795
_cell_angle_gamma    60.00000042816247

_space_group_name_H-M_alt    "P 1"
_space_group_IT_number       1

loop_
  _space_group_symop_operation_xyz
  'x, y, z'

loop_
  _atom_site_type_symbol
  _atom_site_label
  _atom_site_symmetry_multiplicity
  _atom_site_fract_x
  _atom_site_fract_y
  _atom_site_fract_z
  _atom_site_occupancy
  Mn  Mn1       1.0  0.24999999981241244  0.249999973723433  0.25000001597688787  1.0000
  Mn  Mn2       1.0  0.7499999931459733  0.7500000231745512  0.7499999732532147  1.0000
  Sc  Sc1       1.0  0.9999999975959426  1.2102199418357562e-08  0.9999999993858166  1.0000
  Br  Br1       1.0  0.257411748693809  0.25741172028743414  0.7425882653684488  1.0000
  Br  Br2       1.0  0.7425882540446307  0.7425882766105502  0.2574117443809526  1.0000
  Br  Br3       1.0  0.7425882545010666  0.25741173569822756  0.25741175038070185  1.0000
  Br  Br4       1.0  0.2574117493899636  0.7425882577419856  0.7425882492282562  1.0000
  Br  Br5       1.0  0.2574117523477721  0.7425882474231471  0.25741175434341096  1.0000
  Br  Br6       1.0  0.7425882524980952  0.2574117529326083  0.7425882469768742  1.0000
