data_image0
_chemical_formula_structural       Mn2SiSe6
_chemical_formula_sum              "Mn2 Si1 Se6"
_cell_length_a       6.524331003676376
_cell_length_b       6.524331048518202
_cell_length_c       6.524331172982365
_cell_angle_alpha    59.999998686123035
_cell_angle_beta     59.99999930802035
_cell_angle_gamma    59.99999956860005

_space_group_name_H-M_alt    "P 1"
_space_group_IT_number       1

loop_
  _space_group_symop_operation_xyz
  'x, y, z'

loop_
  _atom_site_type_symbol
  _atom_site_label
  _atom_site_symmetry_multiplicity
  _atom_site_fract_x
  _atom_site_fract_y
  _atom_site_fract_z
  _atom_site_occupancy
  Mn  Mn1       1.0  0.24999971979578192  0.24999997541552516  0.249999986422307  1.0000
  Mn  Mn2       1.0  0.7499999403793058  0.7500003335981273  0.7500000793446214  1.0000
  Si  Si1       1.0  1.4766012200223708e-08  3.003513746447972e-08  1.7450253124792516e-08  1.0000
  Se  Se1       1.0  0.2554184569747851  0.2554183269913895  0.7445816464138463  1.0000
  Se  Se2       1.0  0.7445816523527432  0.7445815690391206  0.2554183123704346  1.0000
  Se  Se3       1.0  0.7445817550766097  0.25541828899993285  0.2554185100437117  1.0000
  Se  Se4       1.0  0.2554183392886097  0.7445815563462813  0.7445816041818043  1.0000
  Se  Se5       1.0  0.25541849637048447  0.7445815923526724  0.25541829605576505  1.0000
  Se  Se6       1.0  0.7445816140827294  0.25541833746736853  0.7445815441111131  1.0000
