data_image0
_chemical_formula_structural       Mn2SO6
_chemical_formula_sum              "Mn2 S1 O6"
_cell_length_a       5.0863545061695445
_cell_length_b       5.086354614293159
_cell_length_c       5.086354216517758
_cell_angle_alpha    60.00000014725599
_cell_angle_beta     60.000000286087605
_cell_angle_gamma    59.99999897706826

_space_group_name_H-M_alt    "P 1"
_space_group_IT_number       1

loop_
  _space_group_symop_operation_xyz
  'x, y, z'

loop_
  _atom_site_type_symbol
  _atom_site_label
  _atom_site_symmetry_multiplicity
  _atom_site_fract_x
  _atom_site_fract_y
  _atom_site_fract_z
  _atom_site_occupancy
  Mn  Mn1       1.0  0.2500000481982335  0.24999995214580875  0.2500000161346235  1.0000
  Mn  Mn2       1.0  0.7499999918700583  0.7500000081353213  0.750000003698214  1.0000
  S   S1        1.0  0.9999999969271728  2.4079031338837127e-09  0.9999999983664173  1.0000
  O   O1        1.0  0.22799496149151666  0.22799483820395233  0.7720051253368393  1.0000
  O   O2        1.0  0.7720050822908987  0.7720051654194322  0.22799488079803218  1.0000
  O   O3        1.0  0.7720050906576448  0.2279948854257864  0.22799492807714367  1.0000
  O   O4        1.0  0.22799485445205267  0.7720050941185697  0.7720051237052447  1.0000
  O   O5        1.0  0.22799487249784892  0.7720051275512106  0.22799492246268088  1.0000
  O   O6        1.0  0.7720051181061597  0.22799492663813936  0.7720050476235607  1.0000
