data_image0
_chemical_formula_structural       Mn2SBr6
_chemical_formula_sum              "Mn2 S1 Br6"
_cell_length_a       7.025984715766296
_cell_length_b       7.025984634279705
_cell_length_c       7.025984745890838
_cell_angle_alpha    60.000000367326656
_cell_angle_beta     60.000000600766455
_cell_angle_gamma    59.99999880973462

_space_group_name_H-M_alt    "P 1"
_space_group_IT_number       1

loop_
  _space_group_symop_operation_xyz
  'x, y, z'

loop_
  _atom_site_type_symbol
  _atom_site_label
  _atom_site_symmetry_multiplicity
  _atom_site_fract_x
  _atom_site_fract_y
  _atom_site_fract_z
  _atom_site_occupancy
  Mn  Mn1       1.0  0.250000023198276  0.24999994881924245  0.24999994834410313  1.0000
  Mn  Mn2       1.0  0.7499998995680982  0.7499999719655915  0.7499998174766612  1.0000
  S   S1        1.0  0.9999999957503344  0.9999999930273417  8.816186776816031e-08  1.0000
  Br  Br1       1.0  0.25644169718484  0.25644169743880296  0.7435583021726897  1.0000
  Br  Br2       1.0  0.743558362601995  0.7435583349085759  0.2564417578032547  1.0000
  Br  Br3       1.0  0.7435583192765702  0.25644167463127626  0.2564417209967068  1.0000
  Br  Br4       1.0  0.2564417552360247  0.7435583036779949  0.743558307397042  1.0000
  Br  Br5       1.0  0.25644165445242206  0.7435583140600217  0.25644172997754244  1.0000
  Br  Br6       1.0  0.7435582965491108  0.256441763609642  0.7435583190312692  1.0000
