data_image0
_chemical_formula_structural       Mn2SeI6
_chemical_formula_sum              "Mn2 Se1 I6"
_cell_length_a       7.7524285253733956
_cell_length_b       7.7524285321014
_cell_length_c       7.752428574272235
_cell_angle_alpha    60.00000043232435
_cell_angle_beta     59.99999938956251
_cell_angle_gamma    60.00000049432156

_space_group_name_H-M_alt    "P 1"
_space_group_IT_number       1

loop_
  _space_group_symop_operation_xyz
  'x, y, z'

loop_
  _atom_site_type_symbol
  _atom_site_label
  _atom_site_symmetry_multiplicity
  _atom_site_fract_x
  _atom_site_fract_y
  _atom_site_fract_z
  _atom_site_occupancy
  Mn  Mn1       1.0  0.24999997981412198  0.2499999927980965  0.25000003380976393  1.0000
  Mn  Mn2       1.0  0.7500000316836195  0.7500000099907069  0.749999919548048  1.0000
  Se  Se1       1.0  2.637419442706698e-08  0.9999999968403585  5.1616622264757916e-09  1.0000
  I   I1        1.0  0.2633325796933738  0.2633326096267882  0.7366673987581324  1.0000
  I   I2        1.0  0.7366673900088712  0.7366673979014782  0.26333262859418616  1.0000
  I   I3        1.0  0.7366673911363951  0.2633325953678698  0.263332612190226  1.0000
  I   I4        1.0  0.26333260722717516  0.7366673932025459  0.7366674012809264  1.0000
  I   I5        1.0  0.26333258831686246  0.7366673797196499  0.2633326302112739  1.0000
  I   I6        1.0  0.7366674072329702  0.26333262622879566  0.7366673669483038  1.0000
