data_image0
_chemical_formula_structural       Mn2SrF6
_chemical_formula_sum              "Mn2 Sr1 F6"
_cell_length_a       5.772773356529819
_cell_length_b       5.772773491019252
_cell_length_c       5.772773125540966
_cell_angle_alpha    60.000000350539395
_cell_angle_beta     59.99999934212897
_cell_angle_gamma    60.00000170664687

_space_group_name_H-M_alt    "P 1"
_space_group_IT_number       1

loop_
  _space_group_symop_operation_xyz
  'x, y, z'

loop_
  _atom_site_type_symbol
  _atom_site_label
  _atom_site_symmetry_multiplicity
  _atom_site_fract_x
  _atom_site_fract_y
  _atom_site_fract_z
  _atom_site_occupancy
  Mn  Mn1       1.0  0.25000006930210816  0.2500001949059155  0.24999987596806286  1.0000
  Mn  Mn2       1.0  0.7499999310744357  0.7499999270253757  0.7500002042993227  1.0000
  Sr  Sr1       1.0  1.0829794904828952e-08  0.9999999915136469  4.025088120440819e-09  1.0000
  F   F1        1.0  0.27075526739147465  0.2707552755819886  0.7292447181983895  1.0000
  F   F2        1.0  0.729244723652938  0.7292447063244791  0.27075519769425593  1.0000
  F   F3        1.0  0.729244677510913  0.2707553655439998  0.2707551787200447  1.0000
  F   F4        1.0  0.2707552266732846  0.7292446609158196  0.7292448224200124  1.0000
  F   F5        1.0  0.2707553706963649  0.7292446283575282  0.2707551876861942  1.0000
  F   F6        1.0  0.7292447184020625  0.27075528141493893  0.7292447654822652  1.0000
