data_image0
_chemical_formula_structural       Mn2ScI6
_chemical_formula_sum              "Mn2 Sc1 I6"
_cell_length_a       7.799154567381559
_cell_length_b       7.7991546756813035
_cell_length_c       7.799154702328145
_cell_angle_alpha    59.99999992357529
_cell_angle_beta     59.99999983408169
_cell_angle_gamma    59.99999973949552

_space_group_name_H-M_alt    "P 1"
_space_group_IT_number       1

loop_
  _space_group_symop_operation_xyz
  'x, y, z'

loop_
  _atom_site_type_symbol
  _atom_site_label
  _atom_site_symmetry_multiplicity
  _atom_site_fract_x
  _atom_site_fract_y
  _atom_site_fract_z
  _atom_site_occupancy
  Mn  Mn1       1.0  0.24999987872831225  0.24999996669334063  0.250000051051005  1.0000
  Mn  Mn2       1.0  0.7500000589153162  0.7500000665377472  0.7500000444765481  1.0000
  Sc  Sc1       1.0  2.6470203688279518e-08  9.422135427677053e-09  0.9999999538456453  1.0000
  I   I1        1.0  0.2564100265609667  0.25641002234877786  0.7435899568723077  1.0000
  I   I2        1.0  0.7435899645927476  0.743589948068073  0.25641000867734637  1.0000
  I   I3        1.0  0.7435899721869554  0.2564100375523658  0.25641000794958896  1.0000
  I   I4        1.0  0.2564100252019559  0.7435899941083659  0.7435899533509017  1.0000
  I   I5        1.0  0.25641002721219996  0.7435899820916508  0.25641003244937527  1.0000
  I   I6        1.0  0.7435900125455042  0.2564099757623523  0.7435899920111221  1.0000
