data_image0
_chemical_formula_structural       Mn2SeCl6
_chemical_formula_sum              "Mn2 Se1 Cl6"
_cell_length_a       6.75890866104223
_cell_length_b       6.758908627255673
_cell_length_c       6.758908624626098
_cell_angle_alpha    59.999999888609565
_cell_angle_beta     60.00000009510757
_cell_angle_gamma    59.99999741328234

_space_group_name_H-M_alt    "P 1"
_space_group_IT_number       1

loop_
  _space_group_symop_operation_xyz
  'x, y, z'

loop_
  _atom_site_type_symbol
  _atom_site_label
  _atom_site_symmetry_multiplicity
  _atom_site_fract_x
  _atom_site_fract_y
  _atom_site_fract_z
  _atom_site_occupancy
  Mn  Mn1       1.0  0.24999985070277306  0.250000028597067  0.25000003446404623  1.0000
  Mn  Mn2       1.0  0.7500000666011556  0.7499999825046023  0.7499999983969783  1.0000
  Se  Se1       1.0  2.714511932502255e-08  0.9999999800675005  2.7463794985193313e-08  1.0000
  Cl  Cl1       1.0  0.25163404484496327  0.251634045321758  0.7483659789898017  1.0000
  Cl  Cl2       1.0  0.7483659210377323  0.7483658969221872  0.2516340447768271  1.0000
  Cl  Cl3       1.0  0.7483660881800331  0.2516340099729984  0.25163394945329354  1.0000
  Cl  Cl4       1.0  0.25163397332042975  0.7483660246852561  0.7483660306012762  1.0000
  Cl  Cl5       1.0  0.2516340225810594  0.7483660524096334  0.25163394904379793  1.0000
  Cl  Cl6       1.0  0.7483660069599446  0.2516339858727129  0.7483659859973032  1.0000
