data_image0
_chemical_formula_structural       Mn2SiTe6
_chemical_formula_sum              "Mn2 Si1 Te6"
_cell_length_a       7.206951506894259
_cell_length_b       7.2069516001700675
_cell_length_c       7.206951274581449
_cell_angle_alpha    60.00000172420986
_cell_angle_beta     60.00000040536365
_cell_angle_gamma    59.99999896545118

_space_group_name_H-M_alt    "P 1"
_space_group_IT_number       1

loop_
  _space_group_symop_operation_xyz
  'x, y, z'

loop_
  _atom_site_type_symbol
  _atom_site_label
  _atom_site_symmetry_multiplicity
  _atom_site_fract_x
  _atom_site_fract_y
  _atom_site_fract_z
  _atom_site_occupancy
  Mn  Mn1       1.0  0.2499999311587741  0.25000009606639445  0.2500000539385941  1.0000
  Mn  Mn2       1.0  0.7499999357365948  0.7500000536828414  0.7500002245944071  1.0000
  Si  Si1       1.0  1.924312207105275e-08  0.9999999711103055  0.9999999673594557  1.0000
  Te  Te1       1.0  0.25676614794296604  0.2567660851502837  0.7432338667179241  1.0000
  Te  Te2       1.0  0.743233922371319  0.7432338436777566  0.2567660584158552  1.0000
  Te  Te3       1.0  0.7432339257370858  0.25676613647360325  0.25676602137140647  1.0000
  Te  Te4       1.0  0.256766034977495  0.7432339385023029  0.7432338868758422  1.0000
  Te  Te5       1.0  0.25676616019865894  0.7432338561487198  0.2567660087263676  1.0000
  Te  Te6       1.0  0.7432339298446984  0.2567660182987197  0.7432339059821903  1.0000
