data_image0
_chemical_formula_structural       Mn2SnI6
_chemical_formula_sum              "Mn2 Sn1 I6"
_cell_length_a       7.809966676815091
_cell_length_b       7.809966682658402
_cell_length_c       7.80996674126523
_cell_angle_alpha    60.00000016603439
_cell_angle_beta     59.99999967724419
_cell_angle_gamma    60.00000125490161

_space_group_name_H-M_alt    "P 1"
_space_group_IT_number       1

loop_
  _space_group_symop_operation_xyz
  'x, y, z'

loop_
  _atom_site_type_symbol
  _atom_site_label
  _atom_site_symmetry_multiplicity
  _atom_site_fract_x
  _atom_site_fract_y
  _atom_site_fract_z
  _atom_site_occupancy
  Mn  Mn1       1.0  0.24999998835087753  0.2500000192895729  0.25000001599367283  1.0000
  Mn  Mn2       1.0  0.750000028228336  0.7499998461641586  0.7500000467009501  1.0000
  Sn  Sn1       1.0  0.9999999803772834  0.9999999435454503  4.0599463341430687e-08  1.0000
  I   I1        1.0  0.26158436650213673  0.2615844091971401  0.7384156216718485  1.0000
  I   I2        1.0  0.7384156281352802  0.7384156507111507  0.26158437909428234  1.0000
  I   I3        1.0  0.7384155996933149  0.2615844334093015  0.2615843629057746  1.0000
  I   I4        1.0  0.26158441930213866  0.738415615521716  0.7384155799533673  1.0000
  I   I5        1.0  0.26158438717829463  0.7384156194654459  0.2615843957332635  1.0000
  I   I6        1.0  0.738415599618213  0.2615844639655734  0.7384155587795022  1.0000
