data_image0
_chemical_formula_structural       Mn2SrI6
_chemical_formula_sum              "Mn2 Sr1 I6"
_cell_length_a       8.026958330806632
_cell_length_b       8.026958322790456
_cell_length_c       8.026958500404323
_cell_angle_alpha    59.99999941974606
_cell_angle_beta     59.999999063696805
_cell_angle_gamma    60.00000100341838

_space_group_name_H-M_alt    "P 1"
_space_group_IT_number       1

loop_
  _space_group_symop_operation_xyz
  'x, y, z'

loop_
  _atom_site_type_symbol
  _atom_site_label
  _atom_site_symmetry_multiplicity
  _atom_site_fract_x
  _atom_site_fract_y
  _atom_site_fract_z
  _atom_site_occupancy
  Mn  Mn1       1.0  0.24999998748941635  0.2499999739590488  0.24999996302763425  1.0000
  Mn  Mn2       1.0  0.749999988244551  0.7499999783313589  0.7500000572623614  1.0000
  Sr  Sr1       1.0  2.5153068336728113e-08  0.9999999633810527  9.54306748453357e-08  1.0000
  I   I1        1.0  0.2733814939588001  0.2733813997477121  0.7266185865560224  1.0000
  I   I2        1.0  0.7266185032209145  0.7266186349353289  0.27338141420563217  1.0000
  I   I3        1.0  0.7266186280211013  0.2733814219454989  0.2733814284949773  1.0000
  I   I4        1.0  0.27338147354793324  0.7266185196643842  0.7266185242513321  1.0000
  I   I5        1.0  0.2733813726724709  0.7266186054483648  0.27338149564985176  1.0000
  I   I6        1.0  0.7266185291853992  0.2733814994209912  0.7266184367024454  1.0000
