data_image0
_chemical_formula_structural       Mn2SF6
_chemical_formula_sum              "Mn2 S1 F6"
_cell_length_a       5.254690230693101
_cell_length_b       5.254689949338737
_cell_length_c       5.254689999162367
_cell_angle_alpha    60.00000182875268
_cell_angle_beta     60.00000105594545
_cell_angle_gamma    59.999999547765974

_space_group_name_H-M_alt    "P 1"
_space_group_IT_number       1

loop_
  _space_group_symop_operation_xyz
  'x, y, z'

loop_
  _atom_site_type_symbol
  _atom_site_label
  _atom_site_symmetry_multiplicity
  _atom_site_fract_x
  _atom_site_fract_y
  _atom_site_fract_z
  _atom_site_occupancy
  Mn  Mn1       1.0  0.24999992868887808  0.2500000540811548  0.2500000253051478  1.0000
  Mn  Mn2       1.0  0.75000004112891  0.7500001156281547  0.749999842283754  1.0000
  S   S1        1.0  2.020375422695775e-07  0.9999997762465339  0.9999998871589383  1.0000
  F   F1        1.0  0.2610027014032706  0.2610026725489775  0.7389973166170621  1.0000
  F   F2        1.0  0.7389973279708938  0.7389973316760032  0.2610027086042141  1.0000
  F   F3        1.0  0.7389974674590789  0.2610024483913285  0.26100253528704975  1.0000
  F   F4        1.0  0.2610023501585156  0.7389975977874299  0.7389976585703445  1.0000
  F   F5        1.0  0.2610024487874026  0.7389975318454495  0.2610024854430671  1.0000
  F   F6        1.0  0.7389975494452068  0.2610024537334098  0.7389975703812326  1.0000
