data_image0
_chemical_formula_structural       Mn2SeO6
_chemical_formula_sum              "Mn2 Se1 O6"
_cell_length_a       5.2070607714219745
_cell_length_b       5.207060403142865
_cell_length_c       5.207060933130599
_cell_angle_alpha    59.99999882013249
_cell_angle_beta     59.999997479415384
_cell_angle_gamma    59.99999707230129

_space_group_name_H-M_alt    "P 1"
_space_group_IT_number       1

loop_
  _space_group_symop_operation_xyz
  'x, y, z'

loop_
  _atom_site_type_symbol
  _atom_site_label
  _atom_site_symmetry_multiplicity
  _atom_site_fract_x
  _atom_site_fract_y
  _atom_site_fract_z
  _atom_site_occupancy
  Mn  Mn1       1.0  0.250000138905465  0.2499999070852373  0.24999979461007507  1.0000
  Mn  Mn2       1.0  0.7499998856147035  0.7500000505476306  0.7499996767820402  1.0000
  Se  Se1       1.0  0.9999999569476837  9.408338501505015e-09  0.9999999476850994  1.0000
  O   O1        1.0  0.24521434925990385  0.24521419367392003  0.7547858598095208  1.0000
  O   O2        1.0  0.7547857911348775  0.7547856957485051  0.2452144039499054  1.0000
  O   O3        1.0  0.7547857927205479  0.24521419100755304  0.24521432895582843  1.0000
  O   O4        1.0  0.24521428992517338  0.7547858583566527  0.7547857569562754  1.0000
  O   O5        1.0  0.24521426405701216  0.7547857793410969  0.24521422303209117  1.0000
  O   O6        1.0  0.7547856843471117  0.24521429354395996  0.754785899035696  1.0000
