data_image0
_chemical_formula_structural       Mn2SeS6
_chemical_formula_sum              "Mn2 Se1 S6"
_cell_length_a       6.304149333981665
_cell_length_b       6.304149581789234
_cell_length_c       6.304149259681462
_cell_angle_alpha    60.000001644857896
_cell_angle_beta     60.00000191788838
_cell_angle_gamma    60.00000122894668

_space_group_name_H-M_alt    "P 1"
_space_group_IT_number       1

loop_
  _space_group_symop_operation_xyz
  'x, y, z'

loop_
  _atom_site_type_symbol
  _atom_site_label
  _atom_site_symmetry_multiplicity
  _atom_site_fract_x
  _atom_site_fract_y
  _atom_site_fract_z
  _atom_site_occupancy
  Mn  Mn1       1.0  0.2500000133558933  0.2499999992875464  0.24999995843471118  1.0000
  Mn  Mn2       1.0  0.7499999969397211  0.7500000503171537  0.750000005472688  1.0000
  Se  Se1       1.0  0.9999999943018901  0.9999999786296426  0.9999999262901064  1.0000
  S   S1        1.0  0.2495665199811731  0.24956649260654706  0.7504335695209577  1.0000
  S   S2        1.0  0.750433417308722  0.75043347928776  0.24956660299007286  1.0000
  S   S3        1.0  0.7504335121099863  0.24956648709740115  0.24956653656859412  1.0000
  S   S4        1.0  0.24956654704982384  0.7504334653693078  0.75043347844207  1.0000
  S   S5        1.0  0.24956655171905437  0.7504335326297961  0.24956647059343495  1.0000
  S   S6        1.0  0.7504334401489348  0.24956652280318395  0.7504334456809034  1.0000
