data_image0
_chemical_formula_structural       Mn2ScCl6
_chemical_formula_sum              "Mn2 Sc1 Cl6"
_cell_length_a       6.634779984332206
_cell_length_b       6.634779926147505
_cell_length_c       6.634779948161378
_cell_angle_alpha    60.000000951718455
_cell_angle_beta     60.000001359361775
_cell_angle_gamma    60.00000128266618

_space_group_name_H-M_alt    "P 1"
_space_group_IT_number       1

loop_
  _space_group_symop_operation_xyz
  'x, y, z'

loop_
  _atom_site_type_symbol
  _atom_site_label
  _atom_site_symmetry_multiplicity
  _atom_site_fract_x
  _atom_site_fract_y
  _atom_site_fract_z
  _atom_site_occupancy
  Mn  Mn1       1.0  0.2499999232159875  0.2499998718755281  0.25000016636069133  1.0000
  Mn  Mn2       1.0  0.7500001162056256  0.7499999386672167  0.7499998296825354  1.0000
  Sc  Sc1       1.0  0.9999999959039338  1.845945876473101e-09  0.9999999272718195  1.0000
  Cl  Cl1       1.0  0.25918798799894605  0.25918811859620633  0.7408119679475548  1.0000
  Cl  Cl2       1.0  0.7408119788847882  0.7408119669925636  0.25918812880760556  1.0000
  Cl  Cl3       1.0  0.7408119273208712  0.2591880376637343  0.2591880986417308  1.0000
  Cl  Cl4       1.0  0.2591880653879987  0.7408120017763731  0.740811899756145  1.0000
  Cl  Cl5       1.0  0.25918799343024895  0.7408119759753068  0.2591880658592253  1.0000
  Cl  Cl6       1.0  0.7408120039718888  0.25918809115399766  0.7408119193618363  1.0000
