data_image0
_chemical_formula_structural       Mn2TiBr6
_chemical_formula_sum              "Mn2 Ti1 Br6"
_cell_length_a       7.079572308237502
_cell_length_b       7.079572271891291
_cell_length_c       7.07957235442224
_cell_angle_alpha    59.999999836622905
_cell_angle_beta     59.99999985614332
_cell_angle_gamma    59.99999984054805

_space_group_name_H-M_alt    "P 1"
_space_group_IT_number       1

loop_
  _space_group_symop_operation_xyz
  'x, y, z'

loop_
  _atom_site_type_symbol
  _atom_site_label
  _atom_site_symmetry_multiplicity
  _atom_site_fract_x
  _atom_site_fract_y
  _atom_site_fract_z
  _atom_site_occupancy
  Mn  Mn1       1.0  0.24999996637365454  0.24999999162187694  0.24999997816406339  1.0000
  Mn  Mn2       1.0  0.7499999770147207  0.7499999956252723  0.7499997778143741  1.0000
  Ti  Ti1       1.0  3.932565793669632e-08  1.90296718812008e-08  4.286058469790748e-08  1.0000
  Br  Br1       1.0  0.25084366877252656  0.2508436576713321  0.7491563691989879  1.0000
  Br  Br2       1.0  0.7491562801675633  0.7491563520654301  0.25084380498828296  1.0000
  Br  Br3       1.0  0.7491564100196124  0.2508435863583773  0.2508436601212722  1.0000
  Br  Br4       1.0  0.2508437442185058  0.749156291900653  0.749156348617013  1.0000
  Br  Br5       1.0  0.2508435877815486  0.7491563980387655  0.2508437069291029  1.0000
  Br  Br6       1.0  0.7491563283880469  0.25084370511638476  0.749156312632928  1.0000
