data_image0
_chemical_formula_structural       Mn2TiCl6
_chemical_formula_sum              "Mn2 Ti1 Cl6"
_cell_length_a       6.63773764422014
_cell_length_b       6.637737798367244
_cell_length_c       6.637738005406269
_cell_angle_alpha    59.999999557833966
_cell_angle_beta     59.9999974095828
_cell_angle_gamma    59.99999672114469

_space_group_name_H-M_alt    "P 1"
_space_group_IT_number       1

loop_
  _space_group_symop_operation_xyz
  'x, y, z'

loop_
  _atom_site_type_symbol
  _atom_site_label
  _atom_site_symmetry_multiplicity
  _atom_site_fract_x
  _atom_site_fract_y
  _atom_site_fract_z
  _atom_site_occupancy
  Mn  Mn1       1.0  0.25000025681571225  0.2499998744311288  0.2500000164495355  1.0000
  Mn  Mn2       1.0  0.7499997445173524  0.7499999351193644  0.7500003265540395  1.0000
  Ti  Ti1       1.0  0.9999999772615751  3.690247913056915e-08  0.9999999718264507  1.0000
  Cl  Cl1       1.0  0.252962164618262  0.25296208540241977  0.7470378481801979  1.0000
  Cl  Cl2       1.0  0.7470377949250951  0.747037969549554  0.2529620630858196  1.0000
  Cl  Cl3       1.0  0.7470379623122758  0.25296213811347373  0.2529620030936594  1.0000
  Cl  Cl4       1.0  0.2529621585224339  0.7470378817811397  0.7470378209507638  1.0000
  Cl  Cl5       1.0  0.2529621542096917  0.7470379065249284  0.2529620883537767  1.0000
  Cl  Cl6       1.0  0.7470377840363712  0.2529621705685339  0.7470378676862631  1.0000
