data_image0
_chemical_formula_structural       Mn2VI6
_chemical_formula_sum              "Mn2 V1 I6"
_cell_length_a       7.609406176398721
_cell_length_b       7.609406187371369
_cell_length_c       7.609406261362952
_cell_angle_alpha    60.00000115954708
_cell_angle_beta     59.999999910211
_cell_angle_gamma    59.99999984203816

_space_group_name_H-M_alt    "P 1"
_space_group_IT_number       1

loop_
  _space_group_symop_operation_xyz
  'x, y, z'

loop_
  _atom_site_type_symbol
  _atom_site_label
  _atom_site_symmetry_multiplicity
  _atom_site_fract_x
  _atom_site_fract_y
  _atom_site_fract_z
  _atom_site_occupancy
  Mn  Mn1       1.0  0.25000007147562187  0.250000057222014  0.2499998114145779  1.0000
  Mn  Mn2       1.0  0.7499999790384438  0.7500000219812131  0.7499999500644497  1.0000
  V   V1        1.0  0.9999999923048333  3.219028829684856e-08  4.426144766124893e-08  1.0000
  I   I1        1.0  0.2499316734193982  0.24993167038651565  0.7500683233588029  1.0000
  I   I2        1.0  0.7500682837798384  0.7500683154648818  0.24993172726383656  1.0000
  I   I3        1.0  0.7500683487789565  0.24993162841882513  0.24993170348644803  1.0000
  I   I4        1.0  0.24993168460125187  0.7500682882234541  0.7500683502210791  1.0000
  I   I5        1.0  0.24993166742182715  0.7500682900109532  0.24993174156580267  1.0000
  I   I6        1.0  0.7500683074504813  0.24993169744995905  0.7500683388404331  1.0000
