data_image0
_chemical_formula_structural       Mn2VBr6
_chemical_formula_sum              "Mn2 V1 Br6"
_cell_length_a       6.954396024570626
_cell_length_b       6.95439603751347
_cell_length_c       6.95439609354762
_cell_angle_alpha    60.000000648122644
_cell_angle_beta     59.999999959772744
_cell_angle_gamma    60.00000129767967

_space_group_name_H-M_alt    "P 1"
_space_group_IT_number       1

loop_
  _space_group_symop_operation_xyz
  'x, y, z'

loop_
  _atom_site_type_symbol
  _atom_site_label
  _atom_site_symmetry_multiplicity
  _atom_site_fract_x
  _atom_site_fract_y
  _atom_site_fract_z
  _atom_site_occupancy
  Mn  Mn1       1.0  0.25000012953347844  0.2500001371803422  0.2499998219270299  1.0000
  Mn  Mn2       1.0  0.7500001475679837  0.7499998744028179  0.7499999123839907  1.0000
  V   V1        1.0  0.9999999802940466  0.9999999594944955  1.428839546915118e-08  1.0000
  Br  Br1       1.0  0.2528932928818304  0.25289343944369863  0.7471066557565882  1.0000
  Br  Br2       1.0  0.7471066293480593  0.7471066355393786  0.25289339684298545  1.0000
  Br  Br3       1.0  0.7471065917271215  0.25289334208692055  0.2528934149236275  1.0000
  Br  Br4       1.0  0.2528933573568389  0.747106572635249  0.7471066698688184  1.0000
  Br  Br5       1.0  0.2528933173840898  0.7471066085539632  0.25289344133382463  1.0000
  Br  Br6       1.0  0.7471065524183754  0.2528934294458274  0.747106674664316  1.0000
