data_image0
_chemical_formula_structural       Mn2VCl6
_chemical_formula_sum              "Mn2 V1 Cl6"
_cell_length_a       6.562203427700045
_cell_length_b       6.562203531414968
_cell_length_c       6.562203645484295
_cell_angle_alpha    60.00000013968586
_cell_angle_beta     60.00000119815125
_cell_angle_gamma    60.000002042496284

_space_group_name_H-M_alt    "P 1"
_space_group_IT_number       1

loop_
  _space_group_symop_operation_xyz
  'x, y, z'

loop_
  _atom_site_type_symbol
  _atom_site_label
  _atom_site_symmetry_multiplicity
  _atom_site_fract_x
  _atom_site_fract_y
  _atom_site_fract_z
  _atom_site_occupancy
  Mn  Mn1       1.0  0.24999986535943514  0.2500001277208361  0.2500000072064426  1.0000
  Mn  Mn2       1.0  0.7499999481190913  0.7499998232538545  0.7500000402160777  1.0000
  V   V1        1.0  2.2573199023037358e-08  0.9999999850691027  7.084888810177682e-08  1.0000
  Cl  Cl1       1.0  0.25254732419668513  0.25254729754793875  0.7474526574651561  1.0000
  Cl  Cl2       1.0  0.7474527358242508  0.7474526739567404  0.2525473006136414  1.0000
  Cl  Cl3       1.0  0.7474527119571196  0.25254736402754013  0.25254727398571  1.0000
  Cl  Cl4       1.0  0.25254742754876336  0.7474526224080378  0.7474526643149761  1.0000
  Cl  Cl5       1.0  0.2525472945533699  0.747452686148383  0.25254734771420373  1.0000
  Cl  Cl6       1.0  0.7474526744092924  0.2525474160016485  0.7474526332396468  1.0000
