data_image0
_chemical_formula_structural       Mn2VF6
_chemical_formula_sum              "Mn2 V1 F6"
_cell_length_a       5.55849561760984
_cell_length_b       5.5584951847089865
_cell_length_c       5.558495611246785
_cell_angle_alpha    59.99999782760501
_cell_angle_beta     59.99999983752694
_cell_angle_gamma    60.00000055202462

_space_group_name_H-M_alt    "P 1"
_space_group_IT_number       1

loop_
  _space_group_symop_operation_xyz
  'x, y, z'

loop_
  _atom_site_type_symbol
  _atom_site_label
  _atom_site_symmetry_multiplicity
  _atom_site_fract_x
  _atom_site_fract_y
  _atom_site_fract_z
  _atom_site_occupancy
  Mn  Mn1       1.0  0.24999992867713086  0.2499999354103124  0.250000027678576  1.0000
  Mn  Mn2       1.0  0.7500000814559279  0.749999892162571  0.7500001442243529  1.0000
  V   V1        1.0  0.9999999779878735  2.864387325696118e-08  0.9999999499088806  1.0000
  F   F1        1.0  0.24533439331992524  0.24533452262561806  0.7546655331148718  1.0000
  F   F2        1.0  0.7546654850319315  0.7546656068096268  0.24533435585220661  1.0000
  F   F3        1.0  0.754665621471578  0.24533450978516394  0.24533437145175535  1.0000
  F   F4        1.0  0.24533441457259428  0.7546655204982144  0.7546655961879735  1.0000
  F   F5        1.0  0.24533446347865379  0.754665520202656  0.24533448519954512  1.0000
  F   F6        1.0  0.7546656220657776  0.245334492453725  0.7546655600540451  1.0000
