data_image0
_chemical_formula_structural       Mn2YF6
_chemical_formula_sum              "Mn2 Y1 F6"
_cell_length_a       5.836404724750288
_cell_length_b       5.836404691393649
_cell_length_c       5.836404784735638
_cell_angle_alpha    60.00000044290193
_cell_angle_beta     60.000002230100094
_cell_angle_gamma    59.999999139897184

_space_group_name_H-M_alt    "P 1"
_space_group_IT_number       1

loop_
  _space_group_symop_operation_xyz
  'x, y, z'

loop_
  _atom_site_type_symbol
  _atom_site_label
  _atom_site_symmetry_multiplicity
  _atom_site_fract_x
  _atom_site_fract_y
  _atom_site_fract_z
  _atom_site_occupancy
  Mn  Mn1       1.0  0.2500001156981148  0.2499998195824542  0.2500000814808374  1.0000
  Mn  Mn2       1.0  0.7500000520348195  0.7500001302538525  0.7499999448490974  1.0000
  Y   Y1        1.0  1.1171183641892508e-08  2.0984576043078692e-09  2.187138440390529e-10  1.0000
  F   F1        1.0  0.25831930372261386  0.2583194245291097  0.7416806008564664  1.0000
  F   F2        1.0  0.741680624536117  0.741680668002329  0.2583193744867542  1.0000
  F   F3        1.0  0.7416806132240664  0.2583192971562135  0.25831938495036166  1.0000
  F   F4        1.0  0.25831930028722094  0.7416807387168656  0.7416805815477875  1.0000
  F   F5        1.0  0.2583193586242339  0.7416807338884228  0.2583193206004602  1.0000
  F   F6        1.0  0.7416805935782158  0.2583192096525138  0.7416807018456996  1.0000
