data_image0
_chemical_formula_structural       Mn2YCl6
_chemical_formula_sum              "Mn2 Y1 Cl6"
_cell_length_a       6.792143353255265
_cell_length_b       6.792143172165911
_cell_length_c       6.792143254263807
_cell_angle_alpha    60.000000277006286
_cell_angle_beta     60.000000043040444
_cell_angle_gamma    59.999999011525176

_space_group_name_H-M_alt    "P 1"
_space_group_IT_number       1

loop_
  _space_group_symop_operation_xyz
  'x, y, z'

loop_
  _atom_site_type_symbol
  _atom_site_label
  _atom_site_symmetry_multiplicity
  _atom_site_fract_x
  _atom_site_fract_y
  _atom_site_fract_z
  _atom_site_occupancy
  Mn  Mn1       1.0  0.24999987015020722  0.24999970060819535  0.25000020665856604  1.0000
  Mn  Mn2       1.0  0.7499998361092747  0.7500002252049935  0.7500000308489537  1.0000
  Y   Y1        1.0  6.470514902045175e-08  0.9999999945904633  2.742558715924385e-09  1.0000
  Cl  Cl1       1.0  0.2652485366199048  0.26524836623361225  0.7347515292823623  1.0000
  Cl  Cl2       1.0  0.7347515283508141  0.7347515595795733  0.2652484640888093  1.0000
  Cl  Cl3       1.0  0.7347516034967515  0.26524838920441457  0.26524844999109504  1.0000
  Cl  Cl4       1.0  0.2652484706076428  0.7347516520122156  0.7347514663886238  1.0000
  Cl  Cl5       1.0  0.26524850070981026  0.7347517107420402  0.265248332797038  1.0000
  Cl  Cl6       1.0  0.734751595854697  0.26524840079856354  0.7347514959665365  1.0000
