data_image0
_chemical_formula_structural       Mn2YBr6
_chemical_formula_sum              "Mn2 Y1 Br6"
_cell_length_a       7.275484115141428
_cell_length_b       7.275483966123348
_cell_length_c       7.275484124516085
_cell_angle_alpha    60.00000102192023
_cell_angle_beta     59.99999973701141
_cell_angle_gamma    59.99999992822405

_space_group_name_H-M_alt    "P 1"
_space_group_IT_number       1

loop_
  _space_group_symop_operation_xyz
  'x, y, z'

loop_
  _atom_site_type_symbol
  _atom_site_label
  _atom_site_symmetry_multiplicity
  _atom_site_fract_x
  _atom_site_fract_y
  _atom_site_fract_z
  _atom_site_occupancy
  Mn  Mn1       1.0  0.2500001300296843  0.24999989045486162  0.24999994009227294  1.0000
  Mn  Mn2       1.0  0.7499999770657789  0.749999996258107  0.7500000196578244  1.0000
  Y   Y1        1.0  1.1285812315272642e-08  1.8517246694286432e-08  0.999999964481286  1.0000
  Br  Br1       1.0  0.2636191293885323  0.26361910199860633  0.7363808551044255  1.0000
  Br  Br2       1.0  0.7363807688627642  0.7363809446360432  0.26361915247305984  1.0000
  Br  Br3       1.0  0.7363808606580576  0.2636191398290075  0.2636191515883222  1.0000
  Br  Br4       1.0  0.2636191224803502  0.7363808664043773  0.7363809217128937  1.0000
  Br  Br5       1.0  0.2636191546676029  0.736380892025353  0.26361910250952947  1.0000
  Br  Br6       1.0  0.7363808489904641  0.26361914787575264  0.7363808928422749  1.0000
