data_image0
_chemical_formula_structural       Mn2YI6
_chemical_formula_sum              "Mn2 Y1 I6"
_cell_length_a       7.962766858882049
_cell_length_b       7.962766849143485
_cell_length_c       7.962766735648966
_cell_angle_alpha    60.00000036732511
_cell_angle_beta     60.00000093681751
_cell_angle_gamma    59.99999921876685

_space_group_name_H-M_alt    "P 1"
_space_group_IT_number       1

loop_
  _space_group_symop_operation_xyz
  'x, y, z'

loop_
  _atom_site_type_symbol
  _atom_site_label
  _atom_site_symmetry_multiplicity
  _atom_site_fract_x
  _atom_site_fract_y
  _atom_site_fract_z
  _atom_site_occupancy
  Mn  Mn1       1.0  0.24999995712339274  0.25000009783106436  0.25000002489155465  1.0000
  Mn  Mn2       1.0  0.7500000340079492  0.7500000535512168  0.7499999274617221  1.0000
  Y   Y1        1.0  4.3352813237556726e-09  2.6147522918036136e-08  0.9999999533624754  1.0000
  I   I1        1.0  0.26279810820759414  0.26279811824889876  0.7372018992577305  1.0000
  I   I2        1.0  0.7372018612046538  0.7372018285674684  0.26279814363284215  1.0000
  I   I3        1.0  0.7372019107682585  0.2627980453138036  0.2627981044405917  1.0000
  I   I4        1.0  0.2627981234748716  0.7372018984263836  0.7372018786881973  1.0000
  I   I5        1.0  0.2627980942274259  0.7372018843673299  0.2627981201719243  1.0000
  I   I6        1.0  0.7372019098269793  0.26279804553005126  0.7372019490207202  1.0000
