data_image0
_chemical_formula_structural       Mn2ZnBr6
_chemical_formula_sum              "Mn2 Zn1 Br6"
_cell_length_a       6.877121486137788
_cell_length_b       6.87712152439053
_cell_length_c       6.877121457249346
_cell_angle_alpha    59.999999973167554
_cell_angle_beta     59.999999671054155
_cell_angle_gamma    59.99999972666461

_space_group_name_H-M_alt    "P 1"
_space_group_IT_number       1

loop_
  _space_group_symop_operation_xyz
  'x, y, z'

loop_
  _atom_site_type_symbol
  _atom_site_label
  _atom_site_symmetry_multiplicity
  _atom_site_fract_x
  _atom_site_fract_y
  _atom_site_fract_z
  _atom_site_occupancy
  Mn  Mn1       1.0  0.24999987695662693  0.2500000706528834  0.25000002339620814  1.0000
  Mn  Mn2       1.0  0.7499998464079102  0.7499996509759284  0.7500002647224226  1.0000
  Zn  Zn1       1.0  0.9999999868557083  1.4247180285117685e-08  0.9999999892698784  1.0000
  Br  Br1       1.0  0.2579010482408435  0.25790105524463525  0.7420989586962542  1.0000
  Br  Br2       1.0  0.742098996426649  0.7420989869457303  0.2579010143065069  1.0000
  Br  Br3       1.0  0.7420990138092457  0.25790114853339813  0.25790090395236326  1.0000
  Br  Br4       1.0  0.25790110885676215  0.7420989417412005  0.742098976927088  1.0000
  Br  Br5       1.0  0.2579011285416285  0.7420989802039317  0.25790093845360323  1.0000
  Br  Br6       1.0  0.7420989967695132  0.2579011474695149  0.7420989354907278  1.0000
