data_image0
_chemical_formula_structural       Mn2ZnCl6
_chemical_formula_sum              "Mn2 Zn1 Cl6"
_cell_length_a       6.445300428726715
_cell_length_b       6.44530044800438
_cell_length_c       6.445300460704995
_cell_angle_alpha    60.00000039209248
_cell_angle_beta     59.9999995638869
_cell_angle_gamma    59.999999829442444

_space_group_name_H-M_alt    "P 1"
_space_group_IT_number       1

loop_
  _space_group_symop_operation_xyz
  'x, y, z'

loop_
  _atom_site_type_symbol
  _atom_site_label
  _atom_site_symmetry_multiplicity
  _atom_site_fract_x
  _atom_site_fract_y
  _atom_site_fract_z
  _atom_site_occupancy
  Mn  Mn1       1.0  0.2499998435628441  0.2500002795510548  0.2499998549564664  1.0000
  Mn  Mn2       1.0  0.7499999701748943  0.7499998695441413  0.7500000437902163  1.0000
  Zn  Zn1       1.0  2.4864192049840122e-08  1.1401282919253108e-08  4.547950253811489e-08  1.0000
  Cl  Cl1       1.0  0.2558445879837758  0.25584454780193744  0.7441554121862916  1.0000
  Cl  Cl2       1.0  0.7441554454302844  0.744155323862048  0.2558446038743631  1.0000
  Cl  Cl3       1.0  0.7441555106414115  0.2558446032911085  0.25584460311445884  1.0000
  Cl  Cl4       1.0  0.25584467367795716  0.7441552778739459  0.7441554491068606  1.0000
  Cl  Cl5       1.0  0.25584456878646755  0.7441553869533772  0.25584463370198623  1.0000
  Cl  Cl6       1.0  0.744155364388253  0.2558446994347647  0.7441553561466219  1.0000
