data_image0
_chemical_formula_structural       Mo2CoO6
_chemical_formula_sum              "Mo2 Co1 O6"
_cell_length_a       5.025046290607264
_cell_length_b       5.025046505835916
_cell_length_c       5.025046595972804
_cell_angle_alpha    59.99999545011447
_cell_angle_beta     59.99999219866449
_cell_angle_gamma    59.999994685332155

_space_group_name_H-M_alt    "P 1"
_space_group_IT_number       1

loop_
  _space_group_symop_operation_xyz
  'x, y, z'

loop_
  _atom_site_type_symbol
  _atom_site_label
  _atom_site_symmetry_multiplicity
  _atom_site_fract_x
  _atom_site_fract_y
  _atom_site_fract_z
  _atom_site_occupancy
  Mo  Mo1       1.0  0.2500003313755156  0.25000057482885657  0.24999977763546707  1.0000
  Mo  Mo2       1.0  0.7500016483175024  0.7499996722961354  0.7499999642451088  1.0000
  Co  Co1       1.0  3.460774700740521e-08  0.9999999926881559  2.0182579307049623e-08  1.0000
  O   O1        1.0  0.2555430593378412  0.25554385366722554  0.7444563841813615  1.0000
  O   O2        1.0  0.7444565238665243  0.7444562618446964  0.2555435013625638  1.0000
  O   O3        1.0  0.7444560924692043  0.2555437482234119  0.25554330405263354  1.0000
  O   O4        1.0  0.255542971459737  0.7444562844209822  0.7444566935098195  1.0000
  O   O5        1.0  0.2555431186604894  0.7444563833928506  0.2555438204464247  1.0000
  O   O6        1.0  0.7444562628952676  0.2555432202901095  0.7444565730786884  1.0000
