data_image0
_chemical_formula_structural       Mo2CS6
_chemical_formula_sum              "Mo2 C1 S6"
_cell_length_a       5.742189672198605
_cell_length_b       5.742189553808893
_cell_length_c       5.742189677173833
_cell_angle_alpha    60.000001844981654
_cell_angle_beta     60.00000018211672
_cell_angle_gamma    60.00000030852937

_space_group_name_H-M_alt    "P 1"
_space_group_IT_number       1

loop_
  _space_group_symop_operation_xyz
  'x, y, z'

loop_
  _atom_site_type_symbol
  _atom_site_label
  _atom_site_symmetry_multiplicity
  _atom_site_fract_x
  _atom_site_fract_y
  _atom_site_fract_z
  _atom_site_occupancy
  Mo  Mo1       1.0  0.2500003117993257  0.24999995258721766  0.2499999115925741  1.0000
  Mo  Mo2       1.0  0.7500001438919842  0.7499999217482959  0.7499998616939496  1.0000
  C   C1        1.0  2.1561101312932432e-06  0.9999992748179927  0.9999992061686103  1.0000
  S   S1        1.0  0.24488510860338508  0.24488517701249626  0.755114808817771  1.0000
  S   S2        1.0  0.7551141065716203  0.7551141235760891  0.24488591513775432  1.0000
  S   S3        1.0  0.7551139224938018  0.24488594444159953  0.24488592271875784  1.0000
  S   S4        1.0  0.24488512583095642  0.7551149003580853  0.7551148701071042  1.0000
  S   S5        1.0  0.24488521430401178  0.755114764407649  0.24488527331504129  1.0000
  S   S6        1.0  0.7551139179735558  0.24488593108982185  0.7551142129751438  1.0000
