data_image0
_chemical_formula_structural       Mo2CO6
_chemical_formula_sum              "Mo2 C1 O6"
_cell_length_a       4.6588683511485485
_cell_length_b       4.65886839481447
_cell_length_c       4.658868332734049
_cell_angle_alpha    60.00000003827875
_cell_angle_beta     59.99999878658528
_cell_angle_gamma    59.99999880998881

_space_group_name_H-M_alt    "P 1"
_space_group_IT_number       1

loop_
  _space_group_symop_operation_xyz
  'x, y, z'

loop_
  _atom_site_type_symbol
  _atom_site_label
  _atom_site_symmetry_multiplicity
  _atom_site_fract_x
  _atom_site_fract_y
  _atom_site_fract_z
  _atom_site_occupancy
  Mo  Mo1       1.0  0.2500003734880931  0.2499995033612672  0.2500001105696387  1.0000
  Mo  Mo2       1.0  0.7499998950364775  0.7499998218780987  0.7500002262788006  1.0000
  C   C1        1.0  6.464293906074311e-08  0.9999999027326878  4.421595829016959e-08  1.0000
  O   O1        1.0  0.23171283088118225  0.23171285761678545  0.7682871220552192  1.0000
  O   O2        1.0  0.7682869727200922  0.7682874534399317  0.23171274184823784  1.0000
  O   O3        1.0  0.7682871104120005  0.23171297922399228  0.23171275899817473  1.0000
  O   O4        1.0  0.23171284225156155  0.7682872266788728  0.7682871387586073  1.0000
  O   O5        1.0  0.2317127884996151  0.7682872684634124  0.23171282637496216  1.0000
  O   O6        1.0  0.7682870912350197  0.23171299264522502  0.7682871424902743  1.0000
