data_image0
_chemical_formula_structural       Mo2CrSe6
_chemical_formula_sum              "Mo2 Cr1 Se6"
_cell_length_a       6.207696231294243
_cell_length_b       6.2076961874431955
_cell_length_c       6.2076960497635225
_cell_angle_alpha    60.000002761107005
_cell_angle_beta     60.00000169486203
_cell_angle_gamma    60.000003168288636

_space_group_name_H-M_alt    "P 1"
_space_group_IT_number       1

loop_
  _space_group_symop_operation_xyz
  'x, y, z'

loop_
  _atom_site_type_symbol
  _atom_site_label
  _atom_site_symmetry_multiplicity
  _atom_site_fract_x
  _atom_site_fract_y
  _atom_site_fract_z
  _atom_site_occupancy
  Mo  Mo1       1.0  0.24999972038237808  0.25000017812818637  0.25000010187965604  1.0000
  Mo  Mo2       1.0  0.7500000443520318  0.7499999997162564  0.7500001442578961  1.0000
  Cr  Cr1       1.0  2.517759736741834e-08  0.9999999802705392  0.9999998474618955  1.0000
  Se  Se1       1.0  0.2683873561702024  0.2683873511934019  0.7316126567769747  1.0000
  Se  Se2       1.0  0.7316127020331109  0.731612621464675  0.26838728425292174  1.0000
  Se  Se3       1.0  0.7316127380363457  0.26838728991765154  0.26838733170829165  1.0000
  Se  Se4       1.0  0.26838732364216217  0.7316127281181802  0.7316126316113356  1.0000
  Se  Se5       1.0  0.2683873663434771  0.7316125786659357  0.2683873406805896  1.0000
  Se  Se6       1.0  0.7316127282561768  0.2683872736424467  0.7316126584350187  1.0000
