data_image0
_chemical_formula_structural       Mo2CoSe6
_chemical_formula_sum              "Mo2 Co1 Se6"
_cell_length_a       6.177000987026611
_cell_length_b       6.177000896142269
_cell_length_c       6.177000993416359
_cell_angle_alpha    59.99999896310599
_cell_angle_beta     60.00000113343975
_cell_angle_gamma    60.000002260981006

_space_group_name_H-M_alt    "P 1"
_space_group_IT_number       1

loop_
  _space_group_symop_operation_xyz
  'x, y, z'

loop_
  _atom_site_type_symbol
  _atom_site_label
  _atom_site_symmetry_multiplicity
  _atom_site_fract_x
  _atom_site_fract_y
  _atom_site_fract_z
  _atom_site_occupancy
  Mo  Mo1       1.0  0.2500007238009694  0.24999962764862402  0.24999986974996052  1.0000
  Mo  Mo2       1.0  0.7500000690715941  0.75000035018084  0.7499992679022321  1.0000
  Co  Co1       1.0  0.9999999595351166  0.9999999980172481  7.464780097352473e-08  1.0000
  Se  Se1       1.0  0.26430650081870377  0.26430651079502543  0.7356935127498166  1.0000
  Se  Se2       1.0  0.7356932638699358  0.7356935344479009  0.2643066880946915  1.0000
  Se  Se3       1.0  0.7356931924398317  0.2643064430988626  0.2643067265825053  1.0000
  Se  Se4       1.0  0.26430655059086466  0.7356935942130628  0.7356934841997489  1.0000
  Se  Se5       1.0  0.264306389976619  0.7356935098263777  0.2643067697702141  1.0000
  Se  Se6       1.0  0.7356933594753647  0.26430645214104515  0.73569360012961  1.0000
