data_image0
_chemical_formula_structural       Mo2GeSe6
_chemical_formula_sum              "Mo2 Ge1 Se6"
_cell_length_a       6.358283262670574
_cell_length_b       6.358282917343067
_cell_length_c       6.358282700258975
_cell_angle_alpha    59.99999841406985
_cell_angle_beta     59.99999883027473
_cell_angle_gamma    59.99999891558462

_space_group_name_H-M_alt    "P 1"
_space_group_IT_number       1

loop_
  _space_group_symop_operation_xyz
  'x, y, z'

loop_
  _atom_site_type_symbol
  _atom_site_label
  _atom_site_symmetry_multiplicity
  _atom_site_fract_x
  _atom_site_fract_y
  _atom_site_fract_z
  _atom_site_occupancy
  Mo  Mo1       1.0  0.2500004129775641  0.25000013536011334  0.24999974125163865  1.0000
  Mo  Mo2       1.0  0.7500001737884489  0.750000359851051  0.7500004179789113  1.0000
  Ge  Ge1       1.0  2.6047970362912934e-08  3.0819512884944975e-08  0.999999998303036  1.0000
  Se  Se1       1.0  0.27660311103879776  0.2766030308034953  0.7233969100818105  1.0000
  Se  Se2       1.0  0.7233968192056139  0.7233968460911971  0.276602920898258  1.0000
  Se  Se3       1.0  0.7233967429488009  0.27660306525077505  0.2766031260446901  1.0000
  Se  Se4       1.0  0.2766028937553334  0.7233967769719621  0.7233969020692904  1.0000
  Se  Se5       1.0  0.27660320118041154  0.7233968743424382  0.2766029844621588  1.0000
  Se  Se6       1.0  0.7233966188920313  0.2766028754217614  0.7233970044879393  1.0000
