data_image0
_chemical_formula_structural       Mo2GeS6
_chemical_formula_sum              "Mo2 Ge1 S6"
_cell_length_a       6.198144306635759
_cell_length_b       6.198144137815188
_cell_length_c       6.198144192128692
_cell_angle_alpha    59.99999835039888
_cell_angle_beta     59.999998712244114
_cell_angle_gamma    59.99999846243255

_space_group_name_H-M_alt    "P 1"
_space_group_IT_number       1

loop_
  _space_group_symop_operation_xyz
  'x, y, z'

loop_
  _atom_site_type_symbol
  _atom_site_label
  _atom_site_symmetry_multiplicity
  _atom_site_fract_x
  _atom_site_fract_y
  _atom_site_fract_z
  _atom_site_occupancy
  Mo  Mo1       1.0  0.24999982681447852  0.250000345887762  0.2499998774727764  1.0000
  Mo  Mo2       1.0  0.7500000302451723  0.7500000812858326  0.7499999018550215  1.0000
  Ge  Ge1       1.0  5.338708356022307e-08  0.9999999683842157  7.7850588225348e-08  1.0000
  S   S1        1.0  0.26032218098081306  0.26032197625809345  0.7396778678379681  1.0000
  S   S2        1.0  0.7396780124419149  0.739677810695884  0.2603220650314879  1.0000
  S   S3        1.0  0.739677946334278  0.26032202342155764  0.2603222021423296  1.0000
  S   S4        1.0  0.2603219820935591  0.7396777872442567  0.7396779772127766  1.0000
  S   S5        1.0  0.26032219320113886  0.7396778465211946  0.2603220545618815  1.0000
  S   S6        1.0  0.7396778140334818  0.2603221301274833  0.7396780088519429  1.0000
