data_image0
_chemical_formula_structural       Mo2IrO6
_chemical_formula_sum              "Mo2 Ir1 O6"
_cell_length_a       5.35311549099506
_cell_length_b       5.353115550834748
_cell_length_c       5.353114910118721
_cell_angle_alpha    59.99999797028047
_cell_angle_beta     60.00000013823358
_cell_angle_gamma    60.000001839129304

_space_group_name_H-M_alt    "P 1"
_space_group_IT_number       1

loop_
  _space_group_symop_operation_xyz
  'x, y, z'

loop_
  _atom_site_type_symbol
  _atom_site_label
  _atom_site_symmetry_multiplicity
  _atom_site_fract_x
  _atom_site_fract_y
  _atom_site_fract_z
  _atom_site_occupancy
  Mo  Mo1       1.0  0.2499987086736879  0.25000260127217433  0.25000186869045765  1.0000
  Mo  Mo2       1.0  0.7499970443799617  0.750000402426334  0.7500088756083981  1.0000
  Ir  Ir1       1.0  2.0243869738624828e-07  0.9999999039077966  0.9999994331071616  1.0000
  O   O1        1.0  0.2494869916091881  0.2494822503792999  0.7505148530686592  1.0000
  O   O2        1.0  0.7505147907957394  0.7505161706355825  0.24948116109827467  1.0000
  O   O3        1.0  0.7505154967072228  0.24948682751551857  0.2494814647560533  1.0000
  O   O4        1.0  0.24948400459341927  0.7505141399435132  0.7505159093298124  1.0000
  O   O5        1.0  0.2494853589804984  0.7505137464504624  0.24948338398305314  1.0000
  O   O6        1.0  0.7505174497192657  0.24948394472099678  0.750513021830768  1.0000
