data_image0
_chemical_formula_structural       Mo2MnO6
_chemical_formula_sum              "Mo2 Mn1 O6"
_cell_length_a       5.073352324547247
_cell_length_b       5.073352507939475
_cell_length_c       5.073352402652397
_cell_angle_alpha    59.999998817412134
_cell_angle_beta     59.999999181956724
_cell_angle_gamma    59.999997946183015

_space_group_name_H-M_alt    "P 1"
_space_group_IT_number       1

loop_
  _space_group_symop_operation_xyz
  'x, y, z'

loop_
  _atom_site_type_symbol
  _atom_site_label
  _atom_site_symmetry_multiplicity
  _atom_site_fract_x
  _atom_site_fract_y
  _atom_site_fract_z
  _atom_site_occupancy
  Mo  Mo1       1.0  0.2499998450685204  0.25000016354533167  0.25000008395777795  1.0000
  Mo  Mo2       1.0  0.7500004869808485  0.7499997929685619  0.7499999730460034  1.0000
  Mn  Mn1       1.0  1.5932076835328773e-08  0.9999999999999996  0.9999999979472116  1.0000
  O   O1        1.0  0.25088309556355565  0.2508832725172539  0.7491168822664431  1.0000
  O   O2        1.0  0.749116804410541  0.749116744348506  0.250883139837716  1.0000
  O   O3        1.0  0.7491167067475369  0.2508833076769309  0.25088302649151045  1.0000
  O   O4        1.0  0.2508831215894009  0.7491167260873527  0.7491168455844728  1.0000
  O   O5        1.0  0.25088299056302027  0.7491168302117178  0.2508834170458222  1.0000
  O   O6        1.0  0.7491169423560481  0.2508831697555213  0.7491166640519427  1.0000
