data_image0
_chemical_formula_structural       Mo2NiS6
_chemical_formula_sum              "Mo2 Ni1 S6"
_cell_length_a       5.918566595728486
_cell_length_b       5.918566541914682
_cell_length_c       5.91856656292271
_cell_angle_alpha    59.99999899266935
_cell_angle_beta     60.00000096840779
_cell_angle_gamma    60.00000000715487

_space_group_name_H-M_alt    "P 1"
_space_group_IT_number       1

loop_
  _space_group_symop_operation_xyz
  'x, y, z'

loop_
  _atom_site_type_symbol
  _atom_site_label
  _atom_site_symmetry_multiplicity
  _atom_site_fract_x
  _atom_site_fract_y
  _atom_site_fract_z
  _atom_site_occupancy
  Mo  Mo1       1.0  0.250000142276034  0.24999994274087722  0.24999990635856342  1.0000
  Mo  Mo2       1.0  0.7500002276488766  0.7499999399662816  0.7499998286878099  1.0000
  Ni  Ni1       1.0  0.9999999195567355  0.9999999896533663  0.9999999524670422  1.0000
  S   S1        1.0  0.25692025770244203  0.2569202868229163  0.7430797743486455  1.0000
  S   S2        1.0  0.7430796332246744  0.743079751083752  0.2569204351725519  1.0000
  S   S3        1.0  0.7430797682797886  0.2569202968894674  0.25692019264878946  1.0000
  S   S4        1.0  0.25692017780558496  0.7430798155129712  0.7430797949127522  1.0000
  S   S5        1.0  0.25692012805703823  0.7430797308093023  0.25692035385091133  1.0000
  S   S6        1.0  0.743079730078762  0.25692025329486823  0.7430797975912953  1.0000
