data_image0
_chemical_formula_structural       Mo2OsO6
_chemical_formula_sum              "Mo2 Os1 O6"
_cell_length_a       5.458593516926578
_cell_length_b       5.458593780942411
_cell_length_c       5.458593389227579
_cell_angle_alpha    59.999996394738865
_cell_angle_beta     59.99999711123741
_cell_angle_gamma    59.999999035219254

_space_group_name_H-M_alt    "P 1"
_space_group_IT_number       1

loop_
  _space_group_symop_operation_xyz
  'x, y, z'

loop_
  _atom_site_type_symbol
  _atom_site_label
  _atom_site_symmetry_multiplicity
  _atom_site_fract_x
  _atom_site_fract_y
  _atom_site_fract_z
  _atom_site_occupancy
  Mo  Mo1       1.0  0.2500022375600846  0.25000039920235395  0.24999760733972168  1.0000
  Mo  Mo2       1.0  0.7499982631214513  0.7500024563227048  0.7500007537228741  1.0000
  Os  Os1       1.0  2.782263856031949e-08  0.9999998721090757  7.56817808642743e-08  1.0000
  O   O1        1.0  0.2419364727470782  0.2419362122766156  0.7580638415175117  1.0000
  O   O2        1.0  0.758063759938985  0.7580631318573164  0.24193627550446362  1.0000
  O   O3        1.0  0.7580628806048664  0.24193589043646258  0.24193690777002863  1.0000
  O   O4        1.0  0.24193688905489255  0.758063034125473  0.7580639876343056  1.0000
  O   O5        1.0  0.2419369684695659  0.7580637732186162  0.24193603432112712  1.0000
  O   O6        1.0  0.7580626315527368  0.24193520967954887  0.7580645485070915  1.0000
