data_image0
_chemical_formula_structural       Mo2OsS6
_chemical_formula_sum              "Mo2 Os1 S6"
_cell_length_a       6.016958634552376
_cell_length_b       6.016958698380401
_cell_length_c       6.016958715913843
_cell_angle_alpha    60.00000081019133
_cell_angle_beta     60.00000029054605
_cell_angle_gamma    60.000000633587504

_space_group_name_H-M_alt    "P 1"
_space_group_IT_number       1

loop_
  _space_group_symop_operation_xyz
  'x, y, z'

loop_
  _atom_site_type_symbol
  _atom_site_label
  _atom_site_symmetry_multiplicity
  _atom_site_fract_x
  _atom_site_fract_y
  _atom_site_fract_z
  _atom_site_occupancy
  Mo  Mo1       1.0  0.24999999551985594  0.2499999907948797  0.25000001527505006  1.0000
  Mo  Mo2       1.0  0.7500000336451401  0.7499999520297566  0.7499999975584524  1.0000
  Os  Os1       1.0  0.9999999778624256  2.035488257429084e-08  4.244057569166677e-08  1.0000
  S   S1        1.0  0.27160399646343664  0.27160397858085905  0.7283960032366531  1.0000
  S   S2        1.0  0.7283960010650395  0.7283960130954946  0.2716039893554665  1.0000
  S   S3        1.0  0.7283959795789449  0.27160400132011486  0.2716039601239085  1.0000
  S   S4        1.0  0.27160401839520437  0.7283960005336798  0.7283960138609007  1.0000
  S   S5        1.0  0.2716039780669991  0.7283960479999125  0.27160396803793513  1.0000
  S   S6        1.0  0.7283960102917938  0.2716039884571821  0.7283960183824403  1.0000
