data_image0
_chemical_formula_structural       Mo2PdS6
_chemical_formula_sum              "Mo2 Pd1 S6"
_cell_length_a       6.074650678512766
_cell_length_b       6.074650664911531
_cell_length_c       6.074650856398456
_cell_angle_alpha    59.999999300854896
_cell_angle_beta     59.99999961195875
_cell_angle_gamma    59.99999909388675

_space_group_name_H-M_alt    "P 1"
_space_group_IT_number       1

loop_
  _space_group_symop_operation_xyz
  'x, y, z'

loop_
  _atom_site_type_symbol
  _atom_site_label
  _atom_site_symmetry_multiplicity
  _atom_site_fract_x
  _atom_site_fract_y
  _atom_site_fract_z
  _atom_site_occupancy
  Mo  Mo1       1.0  0.2500000400150475  0.24999998487223538  0.249999976429564  1.0000
  Mo  Mo2       1.0  0.7499999973331449  0.7500000433276103  0.7499999792129413  1.0000
  Pd  Pd1       1.0  7.718709710701733e-09  0.9999999939515293  0.9999999925801399  1.0000
  S   S1        1.0  0.268831377294236  0.26883139507450304  0.7311686097015536  1.0000
  S   S2        1.0  0.7311686089813768  0.7311685867537341  0.26883139301686027  1.0000
  S   S3        1.0  0.731168585952951  0.26883137213583413  0.2688314063531666  1.0000
  S   S4        1.0  0.2688314004379678  0.7311686036439323  0.7311686273169768  1.0000
  S   S5        1.0  0.26883136443197336  0.7311686351159701  0.26883140290338725  1.0000
  S   S6        1.0  0.7311686154492507  0.26883138300309145  0.7311686177905119  1.0000
