data_image0
_chemical_formula_structural       Mo2PtSe6
_chemical_formula_sum              "Mo2 Pt1 Se6"
_cell_length_a       6.52649976327168
_cell_length_b       6.526499526223097
_cell_length_c       6.526499771308252
_cell_angle_alpha    59.99999959982561
_cell_angle_beta     59.99999834691465
_cell_angle_gamma    59.99999871688779

_space_group_name_H-M_alt    "P 1"
_space_group_IT_number       1

loop_
  _space_group_symop_operation_xyz
  'x, y, z'

loop_
  _atom_site_type_symbol
  _atom_site_label
  _atom_site_symmetry_multiplicity
  _atom_site_fract_x
  _atom_site_fract_y
  _atom_site_fract_z
  _atom_site_occupancy
  Mo  Mo1       1.0  0.2500000867561618  0.2500001298131347  0.24999995527886193  1.0000
  Mo  Mo2       1.0  0.7500000492711706  0.7499999184197377  0.7500003815175713  1.0000
  Pt  Pt1       1.0  0.9999999713516281  4.8790881348150634e-08  0.9999999363012255  1.0000
  Se  Se1       1.0  0.26228312992877695  0.2622831652376543  0.7377169395578921  1.0000
  Se  Se2       1.0  0.7377168235102438  0.737716777907158  0.2622831105243499  1.0000
  Se  Se3       1.0  0.7377167634845305  0.26228313788689117  0.2622830948290977  1.0000
  Se  Se4       1.0  0.2622830780993195  0.7377167639733262  0.7377168632793925  1.0000
  Se  Se5       1.0  0.2622832718378937  0.7377168428606729  0.2622829923877475  1.0000
  Se  Se6       1.0  0.7377168100755684  0.26228319786590054  0.7377167638650375  1.0000
