data_image0
_chemical_formula_structural       Mo2PdSe6
_chemical_formula_sum              "Mo2 Pd1 Se6"
_cell_length_a       6.320729616818758
_cell_length_b       6.320729711816999
_cell_length_c       6.320729628843656
_cell_angle_alpha    60.000000403762904
_cell_angle_beta     59.9999997996594
_cell_angle_gamma    60.000000161961246

_space_group_name_H-M_alt    "P 1"
_space_group_IT_number       1

loop_
  _space_group_symop_operation_xyz
  'x, y, z'

loop_
  _atom_site_type_symbol
  _atom_site_label
  _atom_site_symmetry_multiplicity
  _atom_site_fract_x
  _atom_site_fract_y
  _atom_site_fract_z
  _atom_site_occupancy
  Mo  Mo1       1.0  0.24999985934696514  0.250000193696397  0.2499999186702805  1.0000
  Mo  Mo2       1.0  0.749999921459873  0.7500000714836319  0.7500001745084481  1.0000
  Pd  Pd1       1.0  1.7936018769267334e-08  1.7438973418156998e-08  0.9999999490884914  1.0000
  Se  Se1       1.0  0.27732217997912934  0.27732204077878  0.7226779242582266  1.0000
  Se  Se2       1.0  0.7226779379524028  0.7226778213671943  0.2773220246804491  1.0000
  Se  Se3       1.0  0.7226779322137226  0.2773221305222912  0.2773220522142215  1.0000
  Se  Se4       1.0  0.27732211729171646  0.722677871135471  0.7226779102265775  1.0000
  Se  Se5       1.0  0.2773221111808434  0.7226778419931595  0.2773221010267369  1.0000
  Se  Se6       1.0  0.7226779300231179  0.2773220201528149  0.7226779400669825  1.0000
