data_image0
_chemical_formula_structural       Mo2PtO6
_chemical_formula_sum              "Mo2 Pt1 O6"
_cell_length_a       5.322311047350922
_cell_length_b       5.322310929736315
_cell_length_c       5.322311047420502
_cell_angle_alpha    59.99999478086919
_cell_angle_beta     59.999996818156454
_cell_angle_gamma    59.99999536204001

_space_group_name_H-M_alt    "P 1"
_space_group_IT_number       1

loop_
  _space_group_symop_operation_xyz
  'x, y, z'

loop_
  _atom_site_type_symbol
  _atom_site_label
  _atom_site_symmetry_multiplicity
  _atom_site_fract_x
  _atom_site_fract_y
  _atom_site_fract_z
  _atom_site_occupancy
  Mo  Mo1       1.0  0.24999928080709433  0.24999904272442244  0.249999180903596  1.0000
  Mo  Mo2       1.0  0.7499986174248686  0.7500013899076424  0.749999529903192  1.0000
  Pt  Pt1       1.0  1.4288174355278543e-08  9.204608345651863e-09  3.3346801131469936e-08  1.0000
  O   O1        1.0  0.2559251439641959  0.2559234969928192  0.7440775910281139  1.0000
  O   O2        1.0  0.7440754548884096  0.7440759737573028  0.2559236962808006  1.0000
  O   O3        1.0  0.7440758137713437  0.25592394893293224  0.2559247109423977  1.0000
  O   O4        1.0  0.25592532715197663  0.7440760694915197  0.7440753795215455  1.0000
  O   O5        1.0  0.25592374112139676  0.744075823824551  0.25592496094973194  1.0000
  O   O6        1.0  0.744076597046836  0.2559242337195277  0.744074928878215  1.0000
