data_image0
_chemical_formula_structural       Mo2PO6
_chemical_formula_sum              "Mo2 P1 O6"
_cell_length_a       3.4823462547245234
_cell_length_b       4.18012539711837
_cell_length_c       3.6402345969015513
_cell_angle_alpha    38.974150540504056
_cell_angle_beta     45.510965005603
_cell_angle_gamma    41.65436603199197

_space_group_name_H-M_alt    "P 1"
_space_group_IT_number       1

loop_
  _space_group_symop_operation_xyz
  'x, y, z'

loop_
  _atom_site_type_symbol
  _atom_site_label
  _atom_site_symmetry_multiplicity
  _atom_site_fract_x
  _atom_site_fract_y
  _atom_site_fract_z
  _atom_site_occupancy
  Mo  Mo1       1.0  0.38401465159685577  0.8746226707777048  0.931288080387722  1.0000
  Mo  Mo2       1.0  0.3399864709104954  0.8391649864427585  0.055091907903270294  1.0000
  P   P1        1.0  0.6704359631353581  0.43043117847613854  0.4298956645075496  1.0000
  O   O1        1.0  0.5413843087616337  0.6677689335812911  0.8838386915395329  1.0000
  O   O2        1.0  0.24262981019608235  0.7306212435549088  0.32536131948150615  1.0000
  O   O3        1.0  0.3932418698857754  0.8642277252838633  0.9481659361584773  1.0000
  O   O4        1.0  0.06797488249490777  0.8271530749715708  0.8000783850528717  1.0000
  O   O5        1.0  0.7288171662602981  0.3943914538206461  0.16747221026595888  1.0000
  O   O6        1.0  0.40249750463824646  0.8487675549285842  0.9128763650727424  1.0000
