data_image0
_chemical_formula_structural       Mo2RuO6
_chemical_formula_sum              "Mo2 Ru1 O6"
_cell_length_a       5.347710760567555
_cell_length_b       5.347710619014546
_cell_length_c       5.347710553317846
_cell_angle_alpha    60.00000029399199
_cell_angle_beta     60.0000030944645
_cell_angle_gamma    60.00000015138057

_space_group_name_H-M_alt    "P 1"
_space_group_IT_number       1

loop_
  _space_group_symop_operation_xyz
  'x, y, z'

loop_
  _atom_site_type_symbol
  _atom_site_label
  _atom_site_symmetry_multiplicity
  _atom_site_fract_x
  _atom_site_fract_y
  _atom_site_fract_z
  _atom_site_occupancy
  Mo  Mo1       1.0  0.250000336367894  0.24999871216964337  0.24999849928139053  1.0000
  Mo  Mo2       1.0  0.7499994298869815  0.7500001810423564  0.7499982294990701  1.0000
  Ru  Ru1       1.0  0.9999999651901573  1.3741336909875812e-08  0.9999999974445387  1.0000
  O   O1        1.0  0.24896865252630176  0.2489688063688691  0.7510314507769241  1.0000
  O   O2        1.0  0.7510310608769517  0.751031651065254  0.24897019951410393  1.0000
  O   O3        1.0  0.7510322706761206  0.24896854232351312  0.248969167292505  1.0000
  O   O4        1.0  0.24896870755343475  0.7510312234633292  0.7510316447710967  1.0000
  O   O5        1.0  0.24896912922810588  0.7510321527915723  0.2489684673389382  1.0000
  O   O6        1.0  0.7510304254088261  0.24896874207511058  0.7510323704336933  1.0000
