data_image0
_chemical_formula_structural       Mo2RuS6
_chemical_formula_sum              "Mo2 Ru1 S6"
_cell_length_a       5.997873545124249
_cell_length_b       5.997873730107568
_cell_length_c       5.997873649294476
_cell_angle_alpha    59.9999995496891
_cell_angle_beta     59.999999326417594
_cell_angle_gamma    59.999999431174

_space_group_name_H-M_alt    "P 1"
_space_group_IT_number       1

loop_
  _space_group_symop_operation_xyz
  'x, y, z'

loop_
  _atom_site_type_symbol
  _atom_site_label
  _atom_site_symmetry_multiplicity
  _atom_site_fract_x
  _atom_site_fract_y
  _atom_site_fract_z
  _atom_site_occupancy
  Mo  Mo1       1.0  0.2499999928077847  0.24999996759558288  0.25000000547263385  1.0000
  Mo  Mo2       1.0  0.7500000691972019  0.7499999885492807  0.7499999965072697  1.0000
  Ru  Ru1       1.0  8.147823995928724e-09  1.0209825725378468e-08  0.9999999541415094  1.0000
  S   S1        1.0  0.2696358687620839  0.2696359317122021  0.7303641061890409  1.0000
  S   S2        1.0  0.7303640773414911  0.7303641122371612  0.26963591650834845  1.0000
  S   S3        1.0  0.7303641003359661  0.2696359035474272  0.269635878319327  1.0000
  S   S4        1.0  0.26963587919641496  0.7303641036465646  0.7303641126961948  1.0000
  S   S5        1.0  0.2696359002250464  0.7303641285735778  0.26963591477173016  1.0000
  S   S6        1.0  0.7303641103438301  0.26963586636862275  0.7303641102001351  1.0000
