data_image0
_chemical_formula_structural       Mo2ReO6
_chemical_formula_sum              "Mo2 Re1 O6"
_cell_length_a       5.455981922118252
_cell_length_b       5.455981649004816
_cell_length_c       5.455981799341202
_cell_angle_alpha    59.99999866200126
_cell_angle_beta     59.99999898878846
_cell_angle_gamma    60.00000017316429

_space_group_name_H-M_alt    "P 1"
_space_group_IT_number       1

loop_
  _space_group_symop_operation_xyz
  'x, y, z'

loop_
  _atom_site_type_symbol
  _atom_site_label
  _atom_site_symmetry_multiplicity
  _atom_site_fract_x
  _atom_site_fract_y
  _atom_site_fract_z
  _atom_site_occupancy
  Mo  Mo1       1.0  0.25000085904882496  0.24999989930413646  0.25000205445246193  1.0000
  Mo  Mo2       1.0  0.750000119819108  0.7499998191301744  0.7500015487682952  1.0000
  Re  Re1       1.0  0.999999994912603  0.9999999708179301  0.9999998705066784  1.0000
  O   O1        1.0  0.2444594963968205  0.2444598839885617  0.7555397303814732  1.0000
  O   O2        1.0  0.7555400449371007  0.7555404899198845  0.2444587378244118  1.0000
  O   O3        1.0  0.7555396257672757  0.24445961807417677  0.24445950943079087  1.0000
  O   O4        1.0  0.24445958222551561  0.7555406637985059  0.7555396241776658  1.0000
  O   O5        1.0  0.24445980096105452  0.7555398188438182  0.244459324749878  1.0000
  O   O6        1.0  0.7555405039548535  0.24445980082038848  0.755539668480975  1.0000
