data_image0
_chemical_formula_structural       Mo2SO6
_chemical_formula_sum              "Mo2 S1 O6"
_cell_length_a       4.905994116477507
_cell_length_b       4.905994141856801
_cell_length_c       4.905994141520759
_cell_angle_alpha    60.00000033785918
_cell_angle_beta     60.00000006776698
_cell_angle_gamma    60.00000078823229

_space_group_name_H-M_alt    "P 1"
_space_group_IT_number       1

loop_
  _space_group_symop_operation_xyz
  'x, y, z'

loop_
  _atom_site_type_symbol
  _atom_site_label
  _atom_site_symmetry_multiplicity
  _atom_site_fract_x
  _atom_site_fract_y
  _atom_site_fract_z
  _atom_site_occupancy
  Mo  Mo1       1.0  0.25000000199290884  0.2500000136469077  0.24999986876854446  1.0000
  Mo  Mo2       1.0  0.749999958762904  0.7500000484300001  0.7499999074574606  1.0000
  S   S1        1.0  4.73180066347481e-09  0.9999999575607675  5.962017298589226e-08  1.0000
  O   O1        1.0  0.2398270197727804  0.2398270114308843  0.7601730197768197  1.0000
  O   O2        1.0  0.7601729774300038  0.7601729907318135  0.2398270250114846  1.0000
  O   O3        1.0  0.7601730353812277  0.23982691639491768  0.2398270591536621  1.0000
  O   O4        1.0  0.23982703081583925  0.7601730058821663  0.7601730461150248  1.0000
  O   O5        1.0  0.23982697634971073  0.7601730243392497  0.23982700451160036  1.0000
  O   O6        1.0  0.7601729887095845  0.2398270177662552  0.7601730261854307  1.0000
