data_image0
_chemical_formula_structural       Mo2SeS6
_chemical_formula_sum              "Mo2 Se1 S6"
_cell_length_a       6.095882335302633
_cell_length_b       6.095882403532318
_cell_length_c       6.095882323290776
_cell_angle_alpha    60.00000057257308
_cell_angle_beta     60.00000130372776
_cell_angle_gamma    60.000000666429706

_space_group_name_H-M_alt    "P 1"
_space_group_IT_number       1

loop_
  _space_group_symop_operation_xyz
  'x, y, z'

loop_
  _atom_site_type_symbol
  _atom_site_label
  _atom_site_symmetry_multiplicity
  _atom_site_fract_x
  _atom_site_fract_y
  _atom_site_fract_z
  _atom_site_occupancy
  Mo  Mo1       1.0  0.25000000134516015  0.25000009024684156  0.24999994176919374  1.0000
  Mo  Mo2       1.0  0.7500000099513633  0.7500000597813848  0.7500000016495324  1.0000
  Se  Se1       1.0  0.9999999898394222  3.616442398759846e-08  0.9999999705935607  1.0000
  S   S1        1.0  0.258987569751408  0.2589875447423404  0.7410124399845531  1.0000
  S   S2        1.0  0.7410124636489788  0.7410123400801105  0.2589876167828707  1.0000
  S   S3        1.0  0.7410123621337267  0.2589876458306663  0.25898756640453136  1.0000
  S   S4        1.0  0.2589875792700359  0.7410123615489993  0.7410124373522096  1.0000
  S   S5        1.0  0.2589876412692708  0.7410123791286609  0.2589875496136359  1.0000
  S   S6        1.0  0.7410123822955363  0.2589875579312914  0.7410124449415365  1.0000
