data_image0
_chemical_formula_structural       Mo2SeO6
_chemical_formula_sum              "Mo2 Se1 O6"
_cell_length_a       5.246049186061235
_cell_length_b       5.246049377042167
_cell_length_c       5.246049241940885
_cell_angle_alpha    60.000000033476184
_cell_angle_beta     59.999999047281264
_cell_angle_gamma    60.00000020053464

_space_group_name_H-M_alt    "P 1"
_space_group_IT_number       1

loop_
  _space_group_symop_operation_xyz
  'x, y, z'

loop_
  _atom_site_type_symbol
  _atom_site_label
  _atom_site_symmetry_multiplicity
  _atom_site_fract_x
  _atom_site_fract_y
  _atom_site_fract_z
  _atom_site_occupancy
  Mo  Mo1       1.0  0.25000001715005893  0.24999993729025521  0.2499997339847841  1.0000
  Mo  Mo2       1.0  0.7500002546176786  0.7499997768516982  0.7499997697992914  1.0000
  Se  Se1       1.0  0.9999999755210173  1.400762460260744e-08  5.8609177311913225e-08  1.0000
  O   O1        1.0  0.2429611192417895  0.242960871165921  0.7570391619415254  1.0000
  O   O2        1.0  0.7570387935427569  0.7570392001704637  0.2429610118118537  1.0000
  O   O3        1.0  0.7570389989560272  0.24296113993448828  0.2429609273628707  1.0000
  O   O4        1.0  0.24296098762020651  0.7570389477441261  0.7570391002951422  1.0000
  O   O5        1.0  0.2429607374494385  0.7570389350051963  0.24296132557268887  1.0000
  O   O6        1.0  0.7570390986747443  0.24296115500802168  0.7570389057654012  1.0000
