data_image0
_chemical_formula_structural       Mo2SiO6
_chemical_formula_sum              "Mo2 Si1 O6"
_cell_length_a       4.927669174598563
_cell_length_b       4.927668483084461
_cell_length_c       4.9276691511981365
_cell_angle_alpha    59.999995273778964
_cell_angle_beta     59.999998082408354
_cell_angle_gamma    59.99999910607832

_space_group_name_H-M_alt    "P 1"
_space_group_IT_number       1

loop_
  _space_group_symop_operation_xyz
  'x, y, z'

loop_
  _atom_site_type_symbol
  _atom_site_label
  _atom_site_symmetry_multiplicity
  _atom_site_fract_x
  _atom_site_fract_y
  _atom_site_fract_z
  _atom_site_occupancy
  Mo  Mo1       1.0  0.2500001935139954  0.25000005555582694  0.2500005741402815  1.0000
  Mo  Mo2       1.0  0.7499996357086717  0.7500007656596928  0.7500004524685658  1.0000
  Si  Si1       1.0  4.918490701768206e-08  4.225256780886632e-08  0.999999804108842  1.0000
  O   O1        1.0  0.24881617607053053  0.24881552724151806  0.7511838332544863  1.0000
  O   O2        1.0  0.7511840610452182  0.7511843022814253  0.24881552286586234  1.0000
  O   O3        1.0  0.7511842327673076  0.2488159420648635  0.24881553037550372  1.0000
  O   O4        1.0  0.24881581243337367  0.7511839570505352  0.7511842724839881  1.0000
  O   O5        1.0  0.2488153840058523  0.7511840787576001  0.24881593395833912  1.0000
  O   O6        1.0  0.7511844176178047  0.24881536303589188  0.7511839656809949  1.0000
