data_image0
_chemical_formula_structural       Mo2TiS6
_chemical_formula_sum              "Mo2 Ti1 S6"
_cell_length_a       5.955833561969199
_cell_length_b       5.955833240681606
_cell_length_c       5.955833673139647
_cell_angle_alpha    59.99999945169935
_cell_angle_beta     59.999999591174166
_cell_angle_gamma    60.000000622979705

_space_group_name_H-M_alt    "P 1"
_space_group_IT_number       1

loop_
  _space_group_symop_operation_xyz
  'x, y, z'

loop_
  _atom_site_type_symbol
  _atom_site_label
  _atom_site_symmetry_multiplicity
  _atom_site_fract_x
  _atom_site_fract_y
  _atom_site_fract_z
  _atom_site_occupancy
  Mo  Mo1       1.0  0.250000149054165  0.24999988524855396  0.24999996213560302  1.0000
  Mo  Mo2       1.0  0.7500000525297927  0.7499999148493725  0.7499999038005261  1.0000
  Ti  Ti1       1.0  0.9999998769164923  4.9353088870459774e-08  1.3592774800648582e-07  1.0000
  S   S1        1.0  0.26921864536469925  0.26921869208249966  0.730781299685654  1.0000
  S   S2        1.0  0.7307813040376081  0.7307813527244919  0.2692186623332047  1.0000
  S   S3        1.0  0.7307812522043301  0.26921874237449556  0.26921871679025966  1.0000
  S   S4        1.0  0.26921868100233837  0.7307813044888763  0.730781348002714  1.0000
  S   S5        1.0  0.26921868520006104  0.7307812889846266  0.269218734404581  1.0000
  S   S6        1.0  0.7307813586342373  0.2692187517096105  0.7307812345044675  1.0000
