data_image0
_chemical_formula_structural       Mo2TiO6
_chemical_formula_sum              "Mo2 Ti1 O6"
_cell_length_a       5.056569763696544
_cell_length_b       5.056569463880719
_cell_length_c       5.056570128731906
_cell_angle_alpha    59.999999314025914
_cell_angle_beta     59.99999452752301
_cell_angle_gamma    59.99999812644241

_space_group_name_H-M_alt    "P 1"
_space_group_IT_number       1

loop_
  _space_group_symop_operation_xyz
  'x, y, z'

loop_
  _atom_site_type_symbol
  _atom_site_label
  _atom_site_symmetry_multiplicity
  _atom_site_fract_x
  _atom_site_fract_y
  _atom_site_fract_z
  _atom_site_occupancy
  Mo  Mo1       1.0  0.24999982893687156  0.24999985505226982  0.2500015148867672  1.0000
  Mo  Mo2       1.0  0.7500003068115915  0.7500013114810321  0.7500000537898209  1.0000
  Ti  Ti1       1.0  1.5364800229792495e-07  0.9999998062330869  1.8815757980706662e-07  1.0000
  O   O1        1.0  0.26011915935359137  0.2601198484801485  0.7398798784754965  1.0000
  O   O2        1.0  0.7398807808599523  0.7398800755225889  0.26011916592864176  1.0000
  O   O3        1.0  0.7398798102139522  0.2601191280206658  0.26012002519475275  1.0000
  O   O4        1.0  0.26011989637177835  0.7398801541291801  0.7398802143801383  1.0000
  O   O5        1.0  0.26011970048680666  0.7398807317126772  0.26011936398509744  1.0000
  O   O6        1.0  0.739880353077938  0.26011899610105255  0.739879739636562  1.0000
