data_image0
_chemical_formula_structural       Mo2TiSe6
_chemical_formula_sum              "Mo2 Ti1 Se6"
_cell_length_a       6.223636989446978
_cell_length_b       6.223637075348655
_cell_length_c       6.2236372918393315
_cell_angle_alpha    59.99999673261958
_cell_angle_beta     59.9999895534897
_cell_angle_gamma    60.00000333070879

_space_group_name_H-M_alt    "P 1"
_space_group_IT_number       1

loop_
  _space_group_symop_operation_xyz
  'x, y, z'

loop_
  _atom_site_type_symbol
  _atom_site_label
  _atom_site_symmetry_multiplicity
  _atom_site_fract_x
  _atom_site_fract_y
  _atom_site_fract_z
  _atom_site_occupancy
  Mo  Mo1       1.0  0.2500025813161773  0.2500011346858005  0.2499978921853995  1.0000
  Mo  Mo2       1.0  0.7500021638447986  0.7499982698254841  0.7499999993977208  1.0000
  Ti  Ti1       1.0  0.9999994475953745  0.9999999094769054  4.018027703947777e-07  1.0000
  Se  Se1       1.0  0.2715670230048084  0.2715668969777648  0.7284326460619845  1.0000
  Se  Se2       1.0  0.7284312926098647  0.7284336508785801  0.2715671848536491  1.0000
  Se  Se3       1.0  0.7284328165643549  0.27156783360600495  0.2715669313180863  1.0000
  Se  Se4       1.0  0.2715662227259417  0.7284318011482869  0.7284341608311505  1.0000
  Se  Se5       1.0  0.2715665051876556  0.7284327178247514  0.2715674463731762  1.0000
  Se  Se6       1.0  0.7284320172901185  0.2715677493480251  0.72843323731582  1.0000
