data_image0
_chemical_formula_structural       Mo2VSe6
_chemical_formula_sum              "Mo2 V1 Se6"
_cell_length_a       6.231949618808288
_cell_length_b       6.2319496479678484
_cell_length_c       6.231949631911316
_cell_angle_alpha    60.000001464249806
_cell_angle_beta     59.99999877460973
_cell_angle_gamma    60.00000282461893

_space_group_name_H-M_alt    "P 1"
_space_group_IT_number       1

loop_
  _space_group_symop_operation_xyz
  'x, y, z'

loop_
  _atom_site_type_symbol
  _atom_site_label
  _atom_site_symmetry_multiplicity
  _atom_site_fract_x
  _atom_site_fract_y
  _atom_site_fract_z
  _atom_site_occupancy
  Mo  Mo1       1.0  0.250000146604951  0.25000000262922395  0.25000009494015396  1.0000
  Mo  Mo2       1.0  0.7500001472346205  0.7499997072017188  0.7500000118083854  1.0000
  V   V1        1.0  6.000484590315635e-08  0.999999897806087  0.9999999135840353  1.0000
  Se  Se1       1.0  0.27185265778310974  0.27185267789747436  0.7281473563810594  1.0000
  Se  Se2       1.0  0.7281473514943272  0.7281473797858158  0.2718526786065224  1.0000
  Se  Se3       1.0  0.728147159277478  0.27185279683453345  0.2718526141708563  1.0000
  Se  Se4       1.0  0.27185268338913215  0.7281473826953396  0.7281474062922618  1.0000
  Se  Se5       1.0  0.27185250336921324  0.7281474384230231  0.27185266697865335  1.0000
  Se  Se6       1.0  0.7281473131516822  0.27185271948890366  0.7281472473909187  1.0000
