data_image0
_chemical_formula_structural       Mo2VS6
_chemical_formula_sum              "Mo2 V1 S6"
_cell_length_a       5.940506946963436
_cell_length_b       5.940506905777835
_cell_length_c       5.940506850570511
_cell_angle_alpha    60.00000038206994
_cell_angle_beta     60.00000010995785
_cell_angle_gamma    60.00000026549232

_space_group_name_H-M_alt    "P 1"
_space_group_IT_number       1

loop_
  _space_group_symop_operation_xyz
  'x, y, z'

loop_
  _atom_site_type_symbol
  _atom_site_label
  _atom_site_symmetry_multiplicity
  _atom_site_fract_x
  _atom_site_fract_y
  _atom_site_fract_z
  _atom_site_occupancy
  Mo  Mo1       1.0  0.24999991359142335  0.25000015238099976  0.2500000395264855  1.0000
  Mo  Mo2       1.0  0.7500000241208681  0.7500000386211256  0.7499998410786938  1.0000
  V   V1        1.0  0.9999999498728142  8.040567991579847e-08  0.9999999461435182  1.0000
  S   S1        1.0  0.26877600129901125  0.2687759788297245  0.731223977140461  1.0000
  S   S2        1.0  0.7312240432468936  0.7312239441534676  0.2687760715919959  1.0000
  S   S3        1.0  0.7312239908004654  0.268775964724769  0.2687760428307629  1.0000
  S   S4        1.0  0.26877605205771427  0.7312239108396887  0.7312240371883559  1.0000
  S   S5        1.0  0.2687759878454604  0.7312239694913599  0.26877600832700954  1.0000
  S   S6        1.0  0.7312240556797174  0.26877593906004343  0.7312240380315574  1.0000
