data_image0
_chemical_formula_structural       Mo2VO6
_chemical_formula_sum              "Mo2 V1 O6"
_cell_length_a       5.201182992355824
_cell_length_b       5.201182895273061
_cell_length_c       5.201182887061385
_cell_angle_alpha    60.00000595516734
_cell_angle_beta     60.00000193117336
_cell_angle_gamma    60.000004346474626

_space_group_name_H-M_alt    "P 1"
_space_group_IT_number       1

loop_
  _space_group_symop_operation_xyz
  'x, y, z'

loop_
  _atom_site_type_symbol
  _atom_site_label
  _atom_site_symmetry_multiplicity
  _atom_site_fract_x
  _atom_site_fract_y
  _atom_site_fract_z
  _atom_site_occupancy
  Mo  Mo1       1.0  0.25000011447472903  0.249999506337559  0.2499998890610663  1.0000
  Mo  Mo2       1.0  0.7499994924583296  0.7500001461399517  0.7499996828568634  1.0000
  V   V1        1.0  1.1766386114811827e-07  0.9999999999999971  0.9999998661851289  1.0000
  O   O1        1.0  0.24989581750936263  0.24989627252114896  0.7501039671577796  1.0000
  O   O2        1.0  0.7501040894602998  0.7501039450946911  0.24989608927178378  1.0000
  O   O3        1.0  0.7501040828802971  0.24989573955726863  0.24989642003344117  1.0000
  O   O4        1.0  0.24989633340958622  0.7501042355200915  0.7501038048596574  1.0000
  O   O5        1.0  0.24989622394384997  0.7501041785298384  0.24989589377312396  1.0000
  O   O6        1.0  0.750103755145501  0.2498959825721836  0.7501042759797949  1.0000
