data_image0
_chemical_formula_structural       Na2CrF6
_chemical_formula_sum              "Na2 Cr1 F6"
_cell_length_a       5.535939487331006
_cell_length_b       5.53593987025282
_cell_length_c       5.535940053073735
_cell_angle_alpha    59.99999898584094
_cell_angle_beta     59.99999413448251
_cell_angle_gamma    60.000001260140394

_space_group_name_H-M_alt    "P 1"
_space_group_IT_number       1

loop_
  _space_group_symop_operation_xyz
  'x, y, z'

loop_
  _atom_site_type_symbol
  _atom_site_label
  _atom_site_symmetry_multiplicity
  _atom_site_fract_x
  _atom_site_fract_y
  _atom_site_fract_z
  _atom_site_occupancy
  Na  Na1       1.0  0.2500000649911518  0.2500001786915698  0.24999990494553181  1.0000
  Na  Na2       1.0  0.749999808409048  0.7500000250213505  0.7500001022286356  1.0000
  Cr  Cr1       1.0  0.9999999992842561  0.9999999646023651  0.9999999963801541  1.0000
  F   F1        1.0  0.2371808558048144  0.23718098549331304  0.7628191142220746  1.0000
  F   F2        1.0  0.7628193009352545  0.7628189438879429  0.23718085593318197  1.0000
  F   F3        1.0  0.7628192212993812  0.2371808396783592  0.23718093107237376  1.0000
  F   F4        1.0  0.23718069689737603  0.762819129525232  0.7628191944410916  1.0000
  F   F5        1.0  0.23718087207110816  0.7628189626213395  0.23718097491683654  1.0000
  F   F6        1.0  0.7628192139822285  0.2371809910957881  0.7628189389332222  1.0000
