data_image0
_chemical_formula_structural       Na2CBr6
_chemical_formula_sum              "Na2 C1 Br6"
_cell_length_a       7.102435997700998
_cell_length_b       7.10243617372507
_cell_length_c       7.102436294399003
_cell_angle_alpha    60.000000051036054
_cell_angle_beta     59.999994864462344
_cell_angle_gamma    59.99999688781697

_space_group_name_H-M_alt    "P 1"
_space_group_IT_number       1

loop_
  _space_group_symop_operation_xyz
  'x, y, z'

loop_
  _atom_site_type_symbol
  _atom_site_label
  _atom_site_symmetry_multiplicity
  _atom_site_fract_x
  _atom_site_fract_y
  _atom_site_fract_z
  _atom_site_occupancy
  Na  Na1       1.0  0.2500000084499194  0.2500000041477555  0.2499999966095349  1.0000
  Na  Na2       1.0  0.7500000369443882  0.7499999727820402  0.7499999728866157  1.0000
  C   C1        1.0  8.002682485625035e-08  0.9999998672211091  0.9999998292605697  1.0000
  Br  Br1       1.0  0.23580625676229047  0.23580611450940284  0.7641939052977038  1.0000
  Br  Br2       1.0  0.764193848129411  0.7641938400031797  0.23580618363917688  1.0000
  Br  Br3       1.0  0.7641937349815108  0.23580634973858663  0.23580629608024975  1.0000
  Br  Br4       1.0  0.23580617116751684  0.7641937961825223  0.764193737389073  1.0000
  Br  Br5       1.0  0.23580623351696775  0.7641937763935086  0.23580637345017955  1.0000
  Br  Br6       1.0  0.764193698777022  0.23580630572475736  0.7641936056337687  1.0000
