data_image0
_chemical_formula_structural       Na2CoBr6
_chemical_formula_sum              "Na2 Co1 Br6"
_cell_length_a       7.063350633310738
_cell_length_b       7.063350563682375
_cell_length_c       7.063350632124917
_cell_angle_alpha    59.99999820330614
_cell_angle_beta     59.999999129542225
_cell_angle_gamma    59.99999839996133

_space_group_name_H-M_alt    "P 1"
_space_group_IT_number       1

loop_
  _space_group_symop_operation_xyz
  'x, y, z'

loop_
  _atom_site_type_symbol
  _atom_site_label
  _atom_site_symmetry_multiplicity
  _atom_site_fract_x
  _atom_site_fract_y
  _atom_site_fract_z
  _atom_site_occupancy
  Na  Na1       1.0  0.24999999875558798  0.24999997924112483  0.24999998446283586  1.0000
  Na  Na2       1.0  0.7500000002786017  0.7499999845398406  0.7500000355720149  1.0000
  Co  Co1       1.0  7.820584246471359e-08  0.9999999566514164  1.425521018828569e-07  1.0000
  Br  Br1       1.0  0.24690608603108904  0.24690607854103946  0.7530939130239682  1.0000
  Br  Br2       1.0  0.7530939065461429  0.7530939095151318  0.2469060669550676  1.0000
  Br  Br3       1.0  0.753093963963326  0.24690604673520217  0.24690603118997737  1.0000
  Br  Br4       1.0  0.24690612557861316  0.7530938858347853  0.7530939011503819  1.0000
  Br  Br5       1.0  0.24690601214045244  0.7530939845287677  0.24690602882996923  1.0000
  Br  Br6       1.0  0.7530938328250836  0.24690617171989918  0.7530939097119748  1.0000
