data_image0
_chemical_formula_structural       Na2CrCl6
_chemical_formula_sum              "Na2 Cr1 Cl6"
_cell_length_a       6.787694258325457
_cell_length_b       6.787694669369355
_cell_length_c       6.787694799928374
_cell_angle_alpha    59.99999644519827
_cell_angle_beta     59.999995378962545
_cell_angle_gamma    59.999999378093825

_space_group_name_H-M_alt    "P 1"
_space_group_IT_number       1

loop_
  _space_group_symop_operation_xyz
  'x, y, z'

loop_
  _atom_site_type_symbol
  _atom_site_label
  _atom_site_symmetry_multiplicity
  _atom_site_fract_x
  _atom_site_fract_y
  _atom_site_fract_z
  _atom_site_occupancy
  Na  Na1       1.0  0.2500000058384038  0.2499998256167431  0.25000010890449126  1.0000
  Na  Na2       1.0  0.7499999972276752  0.7500001246156915  0.7500001028430043  1.0000
  Cr  Cr1       1.0  4.0518443644002695e-08  1.6239243453684457e-08  7.327569658418749e-08  1.0000
  Cl  Cl1       1.0  0.2417316458853979  0.24173183358078362  0.758268411910301  1.0000
  Cl  Cl2       1.0  0.7582682290918161  0.7582682916746308  0.24173176016433895  1.0000
  Cl  Cl3       1.0  0.758268455637721  0.24173166697098816  0.24173124146209504  1.0000
  Cl  Cl4       1.0  0.24173161714082816  0.7582683446097184  0.7582685261286931  1.0000
  Cl  Cl5       1.0  0.24173153425937807  0.758268404745077  0.24173128098911534  1.0000
  Cl  Cl6       1.0  0.7582684880532192  0.24173148774782996  0.7582684800367903  1.0000
