data_image0
_chemical_formula_structural       Na2CrBr6
_chemical_formula_sum              "Na2 Cr1 Br6"
_cell_length_a       7.15124330061584
_cell_length_b       7.151243318602983
_cell_length_c       7.151243238119991
_cell_angle_alpha    60.000000166141675
_cell_angle_beta     60.00000040543927
_cell_angle_gamma    59.99999988253725

_space_group_name_H-M_alt    "P 1"
_space_group_IT_number       1

loop_
  _space_group_symop_operation_xyz
  'x, y, z'

loop_
  _atom_site_type_symbol
  _atom_site_label
  _atom_site_symmetry_multiplicity
  _atom_site_fract_x
  _atom_site_fract_y
  _atom_site_fract_z
  _atom_site_occupancy
  Na  Na1       1.0  0.24999999780932675  0.24999999593399935  0.25000000448847426  1.0000
  Na  Na2       1.0  0.750000001207564  0.7500000032156868  0.7499999962753535  1.0000
  Cr  Cr1       1.0  4.340398033429646e-09  0.9999998852536511  0.999999925155658  1.0000
  Br  Br1       1.0  0.243707836055082  0.2437078339782137  0.7562921566906982  1.0000
  Br  Br2       1.0  0.7562922280864762  0.7562922216883308  0.24370776787042586  1.0000
  Br  Br3       1.0  0.7562921586407645  0.24370784316598643  0.24370784050947283  1.0000
  Br  Br4       1.0  0.24370774647808638  0.7562922536037281  0.7562922702620208  1.0000
  Br  Br5       1.0  0.24370779976472456  0.7562921985101302  0.24370779488027475  1.0000
  Br  Br6       1.0  0.7562922246310014  0.24370776809954617  0.7562922416263801  1.0000
