data_image0
_chemical_formula_structural       Na2CoF6
_chemical_formula_sum              "Na2 Co1 F6"
_cell_length_a       5.402926991478328
_cell_length_b       5.402927005825054
_cell_length_c       5.402926209410203
_cell_angle_alpha    60.00000003728419
_cell_angle_beta     60.00000024725567
_cell_angle_gamma    59.99999717612278

_space_group_name_H-M_alt    "P 1"
_space_group_IT_number       1

loop_
  _space_group_symop_operation_xyz
  'x, y, z'

loop_
  _atom_site_type_symbol
  _atom_site_label
  _atom_site_symmetry_multiplicity
  _atom_site_fract_x
  _atom_site_fract_y
  _atom_site_fract_z
  _atom_site_occupancy
  Na  Na1       1.0  0.2499997881795141  0.25000012130885985  0.2499999433747974  1.0000
  Na  Na2       1.0  0.7500001482599548  0.7500001349779856  0.7499998840399166  1.0000
  Co  Co1       1.0  3.963333679671201e-07  0.9999996509101309  0.9999994285269771  1.0000
  F   F1        1.0  0.2383521333645274  0.23835203000142224  0.761647953353679  1.0000
  F   F2        1.0  0.7616477062983  0.7616481832158902  0.23835209760458517  1.0000
  F   F3        1.0  0.7616477745038693  0.23835221744302276  0.23835227408581097  1.0000
  F   F4        1.0  0.23835200721815933  0.7616479708392897  0.7616481051919342  1.0000
  F   F5        1.0  0.2383520397891536  0.761647791084827  0.2383522035257325  1.0000
  F   F6        1.0  0.7616479974089964  0.238351925699471  0.7616480376000647  1.0000
