data_image0
_chemical_formula_structural       Na2CoCl6
_chemical_formula_sum              "Na2 Co1 Cl6"
_cell_length_a       6.7364032746537745
_cell_length_b       6.7364026690993715
_cell_length_c       6.73640316431846
_cell_angle_alpha    59.99999854141467
_cell_angle_beta     59.999998083869116
_cell_angle_gamma    59.999996882022536

_space_group_name_H-M_alt    "P 1"
_space_group_IT_number       1

loop_
  _space_group_symop_operation_xyz
  'x, y, z'

loop_
  _atom_site_type_symbol
  _atom_site_label
  _atom_site_symmetry_multiplicity
  _atom_site_fract_x
  _atom_site_fract_y
  _atom_site_fract_z
  _atom_site_occupancy
  Na  Na1       1.0  0.2499998959969722  0.24999995962583  0.25000009578338744  1.0000
  Na  Na2       1.0  0.7500000778031732  0.7500000515969198  0.7499999095936514  1.0000
  Co  Co1       1.0  0.9999999828231131  6.181537774391611e-08  2.9637265625084912e-08  1.0000
  Cl  Cl1       1.0  0.23632720471125682  0.23632736853462713  0.7636727724320543  1.0000
  Cl  Cl2       1.0  0.7636726926456452  0.7636726663234147  0.23632728458498106  1.0000
  Cl  Cl3       1.0  0.7636728804086312  0.2363272124282058  0.23632710995202372  1.0000
  Cl  Cl4       1.0  0.23632750689565346  0.763672627893204  0.7636726761484731  1.0000
  Cl  Cl5       1.0  0.23632732354717306  0.7636726771744071  0.2363272854730964  1.0000
  Cl  Cl6       1.0  0.7636725036169332  0.23632738313702623  0.7636728295409638  1.0000
