data_image0
_chemical_formula_structural       Na2CrI6
_chemical_formula_sum              "Na2 Cr1 I6"
_cell_length_a       7.837803835435389
_cell_length_b       7.837803790567769
_cell_length_c       7.837803759549484
_cell_angle_alpha    60.00000018698758
_cell_angle_beta     59.999999521856076
_cell_angle_gamma    59.99999892956009

_space_group_name_H-M_alt    "P 1"
_space_group_IT_number       1

loop_
  _space_group_symop_operation_xyz
  'x, y, z'

loop_
  _atom_site_type_symbol
  _atom_site_label
  _atom_site_symmetry_multiplicity
  _atom_site_fract_x
  _atom_site_fract_y
  _atom_site_fract_z
  _atom_site_occupancy
  Na  Na1       1.0  0.2499999886940053  0.2499999011284546  0.2500000435079943  1.0000
  Na  Na2       1.0  0.7499999548550288  0.7500000862253816  0.7500000085108488  1.0000
  Cr  Cr1       1.0  0.9999999565916218  0.9999999843738775  6.906914672234255e-08  1.0000
  I   I1        1.0  0.24268928433120213  0.2426892541303087  0.7573107358445029  1.0000
  I   I2        1.0  0.7573107040841216  0.7573107754140594  0.24268923692163558  1.0000
  I   I3        1.0  0.757310784324768  0.24268922554088457  0.2426892283740914  1.0000
  I   I4        1.0  0.24268925566946525  0.7573107774390735  0.7573106923329009  1.0000
  I   I5        1.0  0.2426892678766663  0.7573107974358885  0.24268921418093672  1.0000
  I   I6        1.0  0.7573107974155003  0.24268921804496804  0.7573107603510938  1.0000
