data_image0
_chemical_formula_structural       Na2CF6
_chemical_formula_sum              "Na2 C1 F6"
_cell_length_a       5.0386609203509005
_cell_length_b       5.038661367579972
_cell_length_c       5.038662150567612
_cell_angle_alpha    60.000001559545865
_cell_angle_beta     60.000001230226076
_cell_angle_gamma    60.00000626610689

_space_group_name_H-M_alt    "P 1"
_space_group_IT_number       1

loop_
  _space_group_symop_operation_xyz
  'x, y, z'

loop_
  _atom_site_type_symbol
  _atom_site_label
  _atom_site_symmetry_multiplicity
  _atom_site_fract_x
  _atom_site_fract_y
  _atom_site_fract_z
  _atom_site_occupancy
  Na  Na1       1.0  0.24999999719508675  0.24999997344804417  0.2500000279954385  1.0000
  Na  Na2       1.0  0.7499999621388983  0.750000022433314  0.7500000317876786  1.0000
  C   C1        1.0  0.9999998571532299  0.9999999197870677  2.028239119988567e-07  1.0000
  F   F1        1.0  0.2210836692585627  0.2210835668213598  0.7789164125615271  1.0000
  F   F2        1.0  0.7789167489200459  0.7789164825353068  0.22108343670869654  1.0000
  F   F3        1.0  0.7789166208987276  0.2210835430992181  0.22108356756568887  1.0000
  F   F4        1.0  0.22108337278662424  0.7789164941039513  0.7789163888872683  1.0000
  F   F5        1.0  0.22108341412296117  0.7789163644023184  0.22108371954229916  1.0000
  F   F6        1.0  0.7789163242126645  0.22108372384542765  0.7789162437998347  1.0000
