data_image0
_chemical_formula_structural       Na2CI6
_chemical_formula_sum              "Na2 C1 I6"
_cell_length_a       7.6065067321899456
_cell_length_b       7.606506635720549
_cell_length_c       7.6065065743519495
_cell_angle_alpha    60.00000082539786
_cell_angle_beta     59.99999840406265
_cell_angle_gamma    60.00000122258548

_space_group_name_H-M_alt    "P 1"
_space_group_IT_number       1

loop_
  _space_group_symop_operation_xyz
  'x, y, z'

loop_
  _atom_site_type_symbol
  _atom_site_label
  _atom_site_symmetry_multiplicity
  _atom_site_fract_x
  _atom_site_fract_y
  _atom_site_fract_z
  _atom_site_occupancy
  Na  Na1       1.0  0.2500000701403493  0.2500000565354393  0.2499999600696696  1.0000
  Na  Na2       1.0  0.749999927991444  0.7499999876618603  0.7500000400895264  1.0000
  C   C1        1.0  6.776214489494692e-08  0.9999998695796397  0.9999999235266619  1.0000
  I   I1        1.0  0.24875833629013355  0.2487583897154212  0.7512416029470146  1.0000
  I   I2        1.0  0.7512416528254856  0.7512416496514943  0.24875840150613265  1.0000
  I   I3        1.0  0.7512415774659275  0.24875838362048802  0.24875843223794059  1.0000
  I   I4        1.0  0.2487584015442995  0.7512416815084741  0.751241586736167  1.0000
  I   I5        1.0  0.24875835606527852  0.7512416385705757  0.24875840127284657  1.0000
  I   I6        1.0  0.751241610311291  0.24875834605199093  0.7512416314046887  1.0000
