data_image0
_chemical_formula_structural       Na2CoI6
_chemical_formula_sum              "Na2 Co1 I6"
_cell_length_a       7.654685892062026
_cell_length_b       7.6546862355725525
_cell_length_c       7.654685875001198
_cell_angle_alpha    60.000001340819004
_cell_angle_beta     59.99999898613102
_cell_angle_gamma    59.99999840191255

_space_group_name_H-M_alt    "P 1"
_space_group_IT_number       1

loop_
  _space_group_symop_operation_xyz
  'x, y, z'

loop_
  _atom_site_type_symbol
  _atom_site_label
  _atom_site_symmetry_multiplicity
  _atom_site_fract_x
  _atom_site_fract_y
  _atom_site_fract_z
  _atom_site_occupancy
  Na  Na1       1.0  0.2500000739398031  0.2500000083550822  0.24999989400677572  1.0000
  Na  Na2       1.0  0.7499999488744937  0.7500000202652752  0.7500000377534027  1.0000
  Co  Co1       1.0  0.9999999611296199  7.99996898954129e-09  1.9354373905894497e-08  1.0000
  I   I1        1.0  0.24744689821925792  0.2474467475589935  0.7525531988384887  1.0000
  I   I2        1.0  0.7525531181192581  0.752553277861377  0.24744680438542985  1.0000
  I   I3        1.0  0.7525531260979257  0.24744680607120956  0.24744682049414066  1.0000
  I   I4        1.0  0.24744686924465686  0.7525531601494004  0.7525531940870598  1.0000
  I   I5        1.0  0.24744689965066413  0.752553135318411  0.24744677110965685  1.0000
  I   I6        1.0  0.7525531001258784  0.24744683570217962  0.7525532571440239  1.0000
