data_image0
_chemical_formula_structural       Na2FeBr6
_chemical_formula_sum              "Na2 Fe1 Br6"
_cell_length_a       7.141190228211945
_cell_length_b       7.1411905558339
_cell_length_c       7.14119040823386
_cell_angle_alpha    59.9999992936496
_cell_angle_beta     60.000000902630184
_cell_angle_gamma    60.00000389159336

_space_group_name_H-M_alt    "P 1"
_space_group_IT_number       1

loop_
  _space_group_symop_operation_xyz
  'x, y, z'

loop_
  _atom_site_type_symbol
  _atom_site_label
  _atom_site_symmetry_multiplicity
  _atom_site_fract_x
  _atom_site_fract_y
  _atom_site_fract_z
  _atom_site_occupancy
  Na  Na1       1.0  0.24999999191312247  0.24999997916158817  0.2500000299443384  1.0000
  Na  Na2       1.0  0.750000021910903  0.7500000318121297  0.7499999915770295  1.0000
  Fe  Fe1       1.0  0.9999999639364996  2.5725642593793237e-08  2.6173829511652494e-08  1.0000
  Br  Br1       1.0  0.2260732489783471  0.2260732055074782  0.7739267665947255  1.0000
  Br  Br2       1.0  0.7739267608943948  0.7739267300043484  0.2260733296413995  1.0000
  Br  Br3       1.0  0.7739266740912468  0.2260733249494441  0.22607332707709057  1.0000
  Br  Br4       1.0  0.22607336580027526  0.7739266757340186  0.7739266081373587  1.0000
  Br  Br5       1.0  0.2260732349151338  0.7739267582789245  0.22607320922985194  1.0000
  Br  Br6       1.0  0.7739267377170869  0.2260732647000952  0.7739267078569924  1.0000
