data_image0
_chemical_formula_structural       Na2FeF6
_chemical_formula_sum              "Na2 Fe1 F6"
_cell_length_a       5.507783720112602
_cell_length_b       5.507783812885248
_cell_length_c       5.5077837599000325
_cell_angle_alpha    60.00000215970174
_cell_angle_beta     60.0000040555348
_cell_angle_gamma    60.00000335749915

_space_group_name_H-M_alt    "P 1"
_space_group_IT_number       1

loop_
  _space_group_symop_operation_xyz
  'x, y, z'

loop_
  _atom_site_type_symbol
  _atom_site_label
  _atom_site_symmetry_multiplicity
  _atom_site_fract_x
  _atom_site_fract_y
  _atom_site_fract_z
  _atom_site_occupancy
  Na  Na1       1.0  0.25000006542076414  0.2499998587119747  0.24999997509574964  1.0000
  Na  Na2       1.0  0.7499999592861699  0.7500001298277061  0.7499999611999361  1.0000
  Fe  Fe1       1.0  0.9999999063375239  0.999999891040571  8.133921256277944e-08  1.0000
  F   F1        1.0  0.23949377224816149  0.23949393506262648  0.7605062282775864  1.0000
  F   F2        1.0  0.7605062989374826  0.7605062914088666  0.23949366748713283  1.0000
  F   F3        1.0  0.7605060984716168  0.2394937193005587  0.23949397320099922  1.0000
  F   F4        1.0  0.2394937818319641  0.7605062558971495  0.7605060928044896  1.0000
  F   F5        1.0  0.23949380441696236  0.7605061645292417  0.2394938189618081  1.0000
  F   F6        1.0  0.7605062608644734  0.23949382178677797  0.7605061181301943  1.0000
