data_image0
_chemical_formula_structural       Na2FeCl6
_chemical_formula_sum              "Na2 Fe1 Cl6"
_cell_length_a       6.720859736028783
_cell_length_b       6.720859543858943
_cell_length_c       6.7208597650206325
_cell_angle_alpha    59.999999813092565
_cell_angle_beta     60.00000032916604
_cell_angle_gamma    59.99999982580967

_space_group_name_H-M_alt    "P 1"
_space_group_IT_number       1

loop_
  _space_group_symop_operation_xyz
  'x, y, z'

loop_
  _atom_site_type_symbol
  _atom_site_label
  _atom_site_symmetry_multiplicity
  _atom_site_fract_x
  _atom_site_fract_y
  _atom_site_fract_z
  _atom_site_occupancy
  Na  Na1       1.0  0.25000000430870367  0.2499999991644204  0.25000002429146395  1.0000
  Na  Na2       1.0  0.7500000205964409  0.7500000157162997  0.7499999751171299  1.0000
  Fe  Fe1       1.0  1.5275273238177651e-09  0.9999999799546567  4.795193227610759e-09  1.0000
  Cl  Cl1       1.0  0.23836767794904642  0.23836762504702116  0.7616323740357344  1.0000
  Cl  Cl2       1.0  0.7616323560676177  0.7616323624991402  0.23836765977876204  1.0000
  Cl  Cl3       1.0  0.7616323313309961  0.23836766128638495  0.23836764453963663  1.0000
  Cl  Cl4       1.0  0.2383676551688533  0.7616323554166388  0.761632328523307  1.0000
  Cl  Cl5       1.0  0.23836764091116985  0.7616323546458581  0.23836763137825284  1.0000
  Cl  Cl6       1.0  0.7616323193141958  0.23836765841255758  0.7616323447409975  1.0000
