data_image0
_chemical_formula_structural       Na2FeI6
_chemical_formula_sum              "Na2 Fe1 I6"
_cell_length_a       7.6516091931616135
_cell_length_b       7.651608668849287
_cell_length_c       7.651608872333
_cell_angle_alpha    59.99999964581909
_cell_angle_beta     59.99999811857776
_cell_angle_gamma    59.99999881127957

_space_group_name_H-M_alt    "P 1"
_space_group_IT_number       1

loop_
  _space_group_symop_operation_xyz
  'x, y, z'

loop_
  _atom_site_type_symbol
  _atom_site_label
  _atom_site_symmetry_multiplicity
  _atom_site_fract_x
  _atom_site_fract_y
  _atom_site_fract_z
  _atom_site_occupancy
  Na  Na1       1.0  0.24999998466046247  0.2500000126607429  0.2500000005787586  1.0000
  Na  Na2       1.0  0.7499999762830586  0.7500000027682122  0.7499999951233008  1.0000
  Fe  Fe1       1.0  6.951798748314653e-09  0.9999999519808874  6.7582585192923e-08  1.0000
  I   I1        1.0  0.22901012937055104  0.22901009732605  0.770989928648447  1.0000
  I   I2        1.0  0.7709898281886085  0.7709899373105518  0.22901013363610723  1.0000
  I   I3        1.0  0.7709898749408609  0.22901004702013694  0.22901016542687264  1.0000
  I   I4        1.0  0.22901020819493778  0.7709898915782368  0.7709897827629565  1.0000
  I   I5        1.0  0.2290101979204968  0.7709898944606989  0.22901008138084755  1.0000
  I   I6        1.0  0.770989795231861  0.22901014657844931  0.7709898488180854  1.0000
