data_image0
_chemical_formula_structural       Na2GeI6
_chemical_formula_sum              "Na2 Ge1 I6"
_cell_length_a       7.930254851661488
_cell_length_b       7.9302545773492366
_cell_length_c       7.930254659878035
_cell_angle_alpha    60.00000057900599
_cell_angle_beta     59.999998069932424
_cell_angle_gamma    59.99999968430254

_space_group_name_H-M_alt    "P 1"
_space_group_IT_number       1

loop_
  _space_group_symop_operation_xyz
  'x, y, z'

loop_
  _atom_site_type_symbol
  _atom_site_label
  _atom_site_symmetry_multiplicity
  _atom_site_fract_x
  _atom_site_fract_y
  _atom_site_fract_z
  _atom_site_occupancy
  Na  Na1       1.0  0.24999997135350002  0.2499999978656641  0.2500000107233961  1.0000
  Na  Na2       1.0  0.7500000201037811  0.7499999812418304  0.7500000193729522  1.0000
  Ge  Ge1       1.0  2.2282674722656132e-08  0.99999997683407  4.205441425424703e-08  1.0000
  I   I1        1.0  0.2578972057473889  0.25789732509557606  0.7421027298113506  1.0000
  I   I2        1.0  0.7421027905625927  0.742102704976966  0.2578972559832079  1.0000
  I   I3        1.0  0.742102842150845  0.2578972660499912  0.25789720401105387  1.0000
  I   I4        1.0  0.257897148100189  0.742102725412666  0.7421027990739465  1.0000
  I   I5        1.0  0.2578971687015531  0.7421027385155847  0.2578973128278297  1.0000
  I   I6        1.0  0.7421028335210349  0.2578972869237704  0.7421026294532379  1.0000
