data_image0
_chemical_formula_structural       Na2GeBr6
_chemical_formula_sum              "Na2 Ge1 Br6"
_cell_length_a       7.216439354408108
_cell_length_b       7.2164394195468216
_cell_length_c       7.216439519177976
_cell_angle_alpha    59.99999948512778
_cell_angle_beta     60.0000003707482
_cell_angle_gamma    59.99999946331721

_space_group_name_H-M_alt    "P 1"
_space_group_IT_number       1

loop_
  _space_group_symop_operation_xyz
  'x, y, z'

loop_
  _atom_site_type_symbol
  _atom_site_label
  _atom_site_symmetry_multiplicity
  _atom_site_fract_x
  _atom_site_fract_y
  _atom_site_fract_z
  _atom_site_occupancy
  Na  Na1       1.0  0.25000001779562353  0.24999997446682493  0.2500000267292204  1.0000
  Na  Na2       1.0  0.749999996202063  0.7500000133499296  0.7499999945190914  1.0000
  Ge  Ge1       1.0  7.703210373101551e-08  0.9999999321136189  3.8384611565496614e-08  1.0000
  Br  Br1       1.0  0.24415479886243696  0.2441547221736563  0.7558452789808783  1.0000
  Br  Br2       1.0  0.7558451732415329  0.7558452809175339  0.24415480823462035  1.0000
  Br  Br3       1.0  0.7558452709148781  0.2441547036151452  0.24415477373206365  1.0000
  Br  Br4       1.0  0.24415478573636923  0.7558452570470571  0.7558451843377479  1.0000
  Br  Br5       1.0  0.24415469696853326  0.7558453427225518  0.24415471855763962  1.0000
  Br  Br6       1.0  0.7558451607991278  0.2441547825641247  0.755845166569607  1.0000
