data_image0
_chemical_formula_structural       Na2GeF6
_chemical_formula_sum              "Na2 Ge1 F6"
_cell_length_a       5.561852200099266
_cell_length_b       5.561851799393279
_cell_length_c       5.5618518976083084
_cell_angle_alpha    60.00000087958529
_cell_angle_beta     60.00000131256466
_cell_angle_gamma    59.99999837356057

_space_group_name_H-M_alt    "P 1"
_space_group_IT_number       1

loop_
  _space_group_symop_operation_xyz
  'x, y, z'

loop_
  _atom_site_type_symbol
  _atom_site_label
  _atom_site_symmetry_multiplicity
  _atom_site_fract_x
  _atom_site_fract_y
  _atom_site_fract_z
  _atom_site_occupancy
  Na  Na1       1.0  0.2500000136605239  0.24999999092604933  0.2500000087578237  1.0000
  Na  Na2       1.0  0.7499999614597859  0.7500000058088246  0.7499999632168363  1.0000
  Ge  Ge1       1.0  0.9999999426029951  0.9999999977979537  0.999999927315675  1.0000
  F   F1        1.0  0.2315960887843939  0.23159584431573998  0.7684040445801336  1.0000
  F   F2        1.0  0.768403916243484  0.7684039630432541  0.23159619411675852  1.0000
  F   F3        1.0  0.7684041765399271  0.23159569618821027  0.23159591218494063  1.0000
  F   F4        1.0  0.23159589410295478  0.7684042631118951  0.7684040523213642  1.0000
  F   F5        1.0  0.2315957653771905  0.7684043831382753  0.2315957336583794  1.0000
  F   F6        1.0  0.7684042176876313  0.23159581398270718  0.7684041485346708  1.0000
