data_image0
_chemical_formula_structural       Na2HfCl6
_chemical_formula_sum              "Na2 Hf1 Cl6"
_cell_length_a       7.026438115677814
_cell_length_b       7.026438167576497
_cell_length_c       7.026437772415491
_cell_angle_alpha    60.00000214865459
_cell_angle_beta     60.00000124061195
_cell_angle_gamma    60.00000148085708

_space_group_name_H-M_alt    "P 1"
_space_group_IT_number       1

loop_
  _space_group_symop_operation_xyz
  'x, y, z'

loop_
  _atom_site_type_symbol
  _atom_site_label
  _atom_site_symmetry_multiplicity
  _atom_site_fract_x
  _atom_site_fract_y
  _atom_site_fract_z
  _atom_site_occupancy
  Na  Na1       1.0  0.2500000318642844  0.24999994165742107  0.24999998230387738  1.0000
  Na  Na2       1.0  0.7500000227008249  0.7499999992774823  0.7499999901359908  1.0000
  Hf  Hf1       1.0  0.9999999722621632  0.9999999895416857  0.9999997700387291  1.0000
  Cl  Cl1       1.0  0.2461355927245443  0.2461356861928429  0.7538643643050049  1.0000
  Cl  Cl2       1.0  0.7538644452388109  0.7538643784987658  0.24613558302131344  1.0000
  Cl  Cl3       1.0  0.7538643753302945  0.2461356471025346  0.24613561661486866  1.0000
  Cl  Cl4       1.0  0.24613554004425628  0.7538644402487532  0.7538645087636765  1.0000
  Cl  Cl5       1.0  0.24613561154892236  0.7538643350291288  0.24613566420499766  1.0000
  Cl  Cl6       1.0  0.7538644077422251  0.24613558847525346  0.7538645210258228  1.0000
