data_image0
_chemical_formula_structural       Na2HfBr6
_chemical_formula_sum              "Na2 Hf1 Br6"
_cell_length_a       7.490972671927296
_cell_length_b       7.490972668458447
_cell_length_c       7.49097278369473
_cell_angle_alpha    59.99999921155371
_cell_angle_beta     59.99999970990902
_cell_angle_gamma    60.000000215721776

_space_group_name_H-M_alt    "P 1"
_space_group_IT_number       1

loop_
  _space_group_symop_operation_xyz
  'x, y, z'

loop_
  _atom_site_type_symbol
  _atom_site_label
  _atom_site_symmetry_multiplicity
  _atom_site_fract_x
  _atom_site_fract_y
  _atom_site_fract_z
  _atom_site_occupancy
  Na  Na1       1.0  0.2499999964287938  0.25000000587675386  0.2499999971218905  1.0000
  Na  Na2       1.0  0.7500000127982853  0.7499999702163904  0.7499999913021945  1.0000
  Hf  Hf1       1.0  0.9999999866104627  0.9999999476812453  3.485463715733902e-09  1.0000
  Br  Br1       1.0  0.24677136920701384  0.24677139881830695  0.7532285859835064  1.0000
  Br  Br2       1.0  0.7532286454378497  0.7532286165139036  0.24677134273383006  1.0000
  Br  Br3       1.0  0.7532286079621031  0.24677141998861205  0.24677137557594106  1.0000
  Br  Br4       1.0  0.24677134345097593  0.7532286509322745  0.7532286637581579  1.0000
  Br  Br5       1.0  0.24677138195121456  0.753228592433205  0.24677138716084168  1.0000
  Br  Br6       1.0  0.753228647766276  0.2467713869298615  0.7532286614698419  1.0000
