data_image0
_chemical_formula_structural       Na2HfI6
_chemical_formula_sum              "Na2 Hf1 I6"
_cell_length_a       8.178463500171388
_cell_length_b       8.178463306783074
_cell_length_c       8.178463550657046
_cell_angle_alpha    60.00000064862349
_cell_angle_beta     59.999999547063005
_cell_angle_gamma    60.00000094576438

_space_group_name_H-M_alt    "P 1"
_space_group_IT_number       1

loop_
  _space_group_symop_operation_xyz
  'x, y, z'

loop_
  _atom_site_type_symbol
  _atom_site_label
  _atom_site_symmetry_multiplicity
  _atom_site_fract_x
  _atom_site_fract_y
  _atom_site_fract_z
  _atom_site_occupancy
  Na  Na1       1.0  0.25000000149684215  0.25000002076324795  0.2500000128466743  1.0000
  Na  Na2       1.0  0.7500000298065405  0.749999943985312  0.7499999725436635  1.0000
  Hf  Hf1       1.0  0.9999999911445815  0.9999999460891194  0.9999999775833126  1.0000
  I   I1        1.0  0.2462926224261146  0.24629264516396993  0.7537073564777684  1.0000
  I   I2        1.0  0.753707435658897  0.7537073959583367  0.24629259934390627  1.0000
  I   I3        1.0  0.7537073236914729  0.24629265995936508  0.24629266638569447  1.0000
  I   I4        1.0  0.24629261188790252  0.7537073886505627  0.753707379958524  1.0000
  I   I5        1.0  0.24629265501733108  0.7537073308478767  0.2462927030704351  1.0000
  I   I6        1.0  0.7537073309199219  0.24629266834374533  0.75370732324042  1.0000
