data_image0
_chemical_formula_structural       Na2IrI6
_chemical_formula_sum              "Na2 Ir1 I6"
_cell_length_a       7.734338938846015
_cell_length_b       7.734338984352273
_cell_length_c       7.7343387549010965
_cell_angle_alpha    60.00000021589321
_cell_angle_beta     60.000000946494644
_cell_angle_gamma    60.00000004563166

_space_group_name_H-M_alt    "P 1"
_space_group_IT_number       1

loop_
  _space_group_symop_operation_xyz
  'x, y, z'

loop_
  _atom_site_type_symbol
  _atom_site_label
  _atom_site_symmetry_multiplicity
  _atom_site_fract_x
  _atom_site_fract_y
  _atom_site_fract_z
  _atom_site_occupancy
  Na  Na1       1.0  0.24999999509098267  0.24999998094232767  0.249999978845184  1.0000
  Na  Na2       1.0  0.7500000099131104  0.7500000077511333  0.750000023632801  1.0000
  Ir  Ir1       1.0  6.623501398340768e-10  6.967469816532182e-08  8.636739852640306e-08  1.0000
  I   I1        1.0  0.24618523857630742  0.2461852675267997  0.7538147464807592  1.0000
  I   I2        1.0  0.7538147113696466  0.7538147116655661  0.24618527276161867  1.0000
  I   I3        1.0  0.7538147590751841  0.24618525538799443  0.24618522190221542  1.0000
  I   I4        1.0  0.24618530910129105  0.7538146826329584  0.7538147019214533  1.0000
  I   I5        1.0  0.2461853030937448  0.7538147205982246  0.24618524735457425  1.0000
  I   I6        1.0  0.7538146683408774  0.24618530609961808  0.7538147167037653  1.0000
