data_image0
_chemical_formula_structural       Na2IrF6
_chemical_formula_sum              "Na2 Ir1 F6"
_cell_length_a       5.675317689224173
_cell_length_b       5.675317695691911
_cell_length_c       5.675317792361416
_cell_angle_alpha    60.00000026443399
_cell_angle_beta     59.999999400218194
_cell_angle_gamma    59.99999944170442

_space_group_name_H-M_alt    "P 1"
_space_group_IT_number       1

loop_
  _space_group_symop_operation_xyz
  'x, y, z'

loop_
  _atom_site_type_symbol
  _atom_site_label
  _atom_site_symmetry_multiplicity
  _atom_site_fract_x
  _atom_site_fract_y
  _atom_site_fract_z
  _atom_site_occupancy
  Na  Na1       1.0  0.25000002583839226  0.24999998021781542  0.24999999216359103  1.0000
  Na  Na2       1.0  0.7500000074536418  0.7500000226582041  0.7499999828532733  1.0000
  Ir  Ir1       1.0  5.610125187868041e-09  2.589623906747968e-08  0.9999999789607704  1.0000
  F   F1        1.0  0.243625471432818  0.24362549836046637  0.756374523262179  1.0000
  F   F2        1.0  0.756374472932705  0.7563745088315939  0.24362553458628539  1.0000
  F   F3        1.0  0.7563745718856235  0.24362543198889963  0.24362543246145674  1.0000
  F   F4        1.0  0.24362547016190964  0.7563745385168209  0.7563745666969183  1.0000
  F   F5        1.0  0.24362547500561724  0.7563745056529811  0.24362549132265468  1.0000
  F   F6        1.0  0.7563744954606331  0.24362548427491912  0.7563745215811611  1.0000
