data_image0
_chemical_formula_structural       Na2IrCl6
_chemical_formula_sum              "Na2 Ir1 Cl6"
_cell_length_a       6.889111592223159
_cell_length_b       6.889111634110985
_cell_length_c       6.88911149668569
_cell_angle_alpha    59.99999969936204
_cell_angle_beta     59.999998892513084
_cell_angle_gamma    59.99999950132587

_space_group_name_H-M_alt    "P 1"
_space_group_IT_number       1

loop_
  _space_group_symop_operation_xyz
  'x, y, z'

loop_
  _atom_site_type_symbol
  _atom_site_label
  _atom_site_symmetry_multiplicity
  _atom_site_fract_x
  _atom_site_fract_y
  _atom_site_fract_z
  _atom_site_occupancy
  Na  Na1       1.0  0.24999996123388957  0.24999999311170995  0.2500000357125589  1.0000
  Na  Na2       1.0  0.7500000125598717  0.7499999900019175  0.7500000214079541  1.0000
  Ir  Ir1       1.0  0.9999998452009946  1.7777979759589493e-07  1.4673029816682575e-07  1.0000
  Cl  Cl1       1.0  0.2402242569939111  0.24022431868442987  0.7597757138608832  1.0000
  Cl  Cl2       1.0  0.7597757447681457  0.7597757213187333  0.24022423115554556  1.0000
  Cl  Cl3       1.0  0.7597757543649075  0.24022424019556965  0.2402241925131779  1.0000
  Cl  Cl4       1.0  0.2402244212435625  0.759775590027432  0.7597756369260524  1.0000
  Cl  Cl5       1.0  0.24022435439151318  0.7597756743884563  0.24022428229453088  1.0000
  Cl  Cl6       1.0  0.7597756621855264  0.24022432116975706  0.7597757109228994  1.0000
