data_image0
_chemical_formula_structural       Na2IrBr6
_chemical_formula_sum              "Na2 Ir1 Br6"
_cell_length_a       7.236891203392243
_cell_length_b       7.23689100964745
_cell_length_c       7.2368912818300615
_cell_angle_alpha    59.99999780846094
_cell_angle_beta     59.99999724677546
_cell_angle_gamma    60.00000077549485

_space_group_name_H-M_alt    "P 1"
_space_group_IT_number       1

loop_
  _space_group_symop_operation_xyz
  'x, y, z'

loop_
  _atom_site_type_symbol
  _atom_site_label
  _atom_site_symmetry_multiplicity
  _atom_site_fract_x
  _atom_site_fract_y
  _atom_site_fract_z
  _atom_site_occupancy
  Na  Na1       1.0  0.2500000090166315  0.2500000035541362  0.24999998174649726  1.0000
  Na  Na2       1.0  0.7500000061304436  0.7499999920464115  0.7499999857343482  1.0000
  Ir  Ir1       1.0  0.9999998546119185  0.9999998426102075  0.9999997133555537  1.0000
  Br  Br1       1.0  0.2443898569592216  0.24438984351523096  0.7556101447189592  1.0000
  Br  Br2       1.0  0.7556102996270965  0.7556103213216528  0.2443897309872975  1.0000
  Br  Br3       1.0  0.7556100245660491  0.24438993109677928  0.24438997478518568  1.0000
  Br  Br4       1.0  0.24438976924392286  0.7556102642026326  0.7556102218405711  1.0000
  Br  Br5       1.0  0.24438996059636278  0.7556100382904245  0.24439000436456557  1.0000
  Br  Br6       1.0  0.755610224539028  0.24438977284252628  0.7556102384268244  1.0000
