data_image0
_chemical_formula_structural       Na2MnF6
_chemical_formula_sum              "Na2 Mn1 F6"
_cell_length_a       5.525789638634118
_cell_length_b       5.525789379377103
_cell_length_c       5.525789274759395
_cell_angle_alpha    60.00000464380276
_cell_angle_beta     59.99999492879842
_cell_angle_gamma    60.00000202101375

_space_group_name_H-M_alt    "P 1"
_space_group_IT_number       1

loop_
  _space_group_symop_operation_xyz
  'x, y, z'

loop_
  _atom_site_type_symbol
  _atom_site_label
  _atom_site_symmetry_multiplicity
  _atom_site_fract_x
  _atom_site_fract_y
  _atom_site_fract_z
  _atom_site_occupancy
  Na  Na1       1.0  0.250000141484733  0.2500000425616097  0.24999994577727996  1.0000
  Na  Na2       1.0  0.7500000078736406  0.7500001299012217  0.7499998074437398  1.0000
  Mn  Mn1       1.0  4.781607204152992e-08  0.9999995744481084  0.9999999137940678  1.0000
  F   F1        1.0  0.2351348207204815  0.23513471853613385  0.7648651857634116  1.0000
  F   F2        1.0  0.7648655618971811  0.7648655315012717  0.23513455681636447  1.0000
  F   F3        1.0  0.764865254656799  0.23513471601190733  0.23513478472355187  1.0000
  F   F4        1.0  0.23513421575122467  0.7648655561896693  0.7648657431018993  1.0000
  F   F5        1.0  0.23513442865502163  0.7648654222464577  0.23513468883774039  1.0000
  F   F6        1.0  0.7648654592066366  0.2351344000226458  0.7648654299484802  1.0000
