data_image0
_chemical_formula_structural       Na2MoI6
_chemical_formula_sum              "Na2 Mo1 I6"
_cell_length_a       7.9241022641957555
_cell_length_b       7.924102207845526
_cell_length_c       7.924101967854572
_cell_angle_alpha    60.000001577556176
_cell_angle_beta     60.000000738226454
_cell_angle_gamma    60.000001007727896

_space_group_name_H-M_alt    "P 1"
_space_group_IT_number       1

loop_
  _space_group_symop_operation_xyz
  'x, y, z'

loop_
  _atom_site_type_symbol
  _atom_site_label
  _atom_site_symmetry_multiplicity
  _atom_site_fract_x
  _atom_site_fract_y
  _atom_site_fract_z
  _atom_site_occupancy
  Na  Na1       1.0  0.25000000804816325  0.24999996351303194  0.25000000251118804  1.0000
  Na  Na2       1.0  0.7500000098350653  0.7500000296425978  0.7499999893055688  1.0000
  Mo  Mo1       1.0  0.9999999751517635  1.3137552870785152e-07  0.9999998634461593  1.0000
  I   I1        1.0  0.2489535296629228  0.2489534998001759  0.7510465121851683  1.0000
  I   I2        1.0  0.7510463999801691  0.7510464083477583  0.24895356625550472  1.0000
  I   I3        1.0  0.7510464183305785  0.24895359936756653  0.24895350919253018  1.0000
  I   I4        1.0  0.24895356739068045  0.7510464246999525  0.751046490821103  1.0000
  I   I5        1.0  0.248953643609199  0.751046374108842  0.24895357131084267  1.0000
  I   I6        1.0  0.7510464431311915  0.24895357422454908  0.7510464867307566  1.0000
