data_image0
_chemical_formula_structural       Na2MnCl6
_chemical_formula_sum              "Na2 Mn1 Cl6"
_cell_length_a       6.873399840187761
_cell_length_b       6.8733989157085595
_cell_length_c       6.873398889257706
_cell_angle_alpha    60.00000313040802
_cell_angle_beta     60.00000248292164
_cell_angle_gamma    60.0000020566847

_space_group_name_H-M_alt    "P 1"
_space_group_IT_number       1

loop_
  _space_group_symop_operation_xyz
  'x, y, z'

loop_
  _atom_site_type_symbol
  _atom_site_label
  _atom_site_symmetry_multiplicity
  _atom_site_fract_x
  _atom_site_fract_y
  _atom_site_fract_z
  _atom_site_occupancy
  Na  Na1       1.0  0.24999994389541297  0.2500000715989318  0.24999999620748628  1.0000
  Na  Na2       1.0  0.7499999663913914  0.7500000223557023  0.7500000349490342  1.0000
  Mn  Mn1       1.0  1.2569394481322698e-07  0.9999998396324131  0.9999998005590576  1.0000
  Cl  Cl1       1.0  0.23445898314485714  0.23445898927867093  0.7655409398537628  1.0000
  Cl  Cl2       1.0  0.7655410484888815  0.7655411135852688  0.2344588428592166  1.0000
  Cl  Cl3       1.0  0.7655409828475691  0.2344590632731834  0.23445883559954012  1.0000
  Cl  Cl4       1.0  0.23445884243687407  0.7655412302500044  0.7655413899688704  1.0000
  Cl  Cl5       1.0  0.23445905201274153  0.765540826649818  0.23445890632284436  1.0000
  Cl  Cl6       1.0  0.7655410753350035  0.23445883787607646  0.7655412164687198  1.0000
