data_image0
_chemical_formula_structural       Na2MnBr6
_chemical_formula_sum              "Na2 Mn1 Br6"
_cell_length_a       7.207736959411157
_cell_length_b       7.207737004136855
_cell_length_c       7.207737274376905
_cell_angle_alpha    59.9999999205882
_cell_angle_beta     60.00000072383636
_cell_angle_gamma    60.0000000697209

_space_group_name_H-M_alt    "P 1"
_space_group_IT_number       1

loop_
  _space_group_symop_operation_xyz
  'x, y, z'

loop_
  _atom_site_type_symbol
  _atom_site_label
  _atom_site_symmetry_multiplicity
  _atom_site_fract_x
  _atom_site_fract_y
  _atom_site_fract_z
  _atom_site_occupancy
  Na  Na1       1.0  0.2500000092705131  0.2500000271591811  0.2499999718184688  1.0000
  Na  Na2       1.0  0.7499999932804997  0.7499999880210702  0.7500000196837023  1.0000
  Mn  Mn1       1.0  3.022752232166609e-08  3.9081797622857774e-08  0.9999999195612082  1.0000
  Br  Br1       1.0  0.23238990694000358  0.23239001961865102  0.7676100683227897  1.0000
  Br  Br2       1.0  0.7676100796073916  0.7676099666750543  0.23239000389517722  1.0000
  Br  Br3       1.0  0.7676100300792292  0.23238997681896034  0.23238991650124072  1.0000
  Br  Br4       1.0  0.2323899763727706  0.767609973791364  0.7676100914614205  1.0000
  Br  Br5       1.0  0.23238997130271205  0.7676099779323333  0.23238997177619247  1.0000
  Br  Br6       1.0  0.7676099808413063  0.23239002025583197  0.7676100506507223  1.0000
