data_image0
_chemical_formula_structural       Na2MnI6
_chemical_formula_sum              "Na2 Mn1 I6"
_cell_length_a       7.772343645071075
_cell_length_b       7.772343692830746
_cell_length_c       7.772343333123475
_cell_angle_alpha    60.00000267675337
_cell_angle_beta     60.000001979454915
_cell_angle_gamma    59.99999706583968

_space_group_name_H-M_alt    "P 1"
_space_group_IT_number       1

loop_
  _space_group_symop_operation_xyz
  'x, y, z'

loop_
  _atom_site_type_symbol
  _atom_site_label
  _atom_site_symmetry_multiplicity
  _atom_site_fract_x
  _atom_site_fract_y
  _atom_site_fract_z
  _atom_site_occupancy
  Na  Na1       1.0  0.25000005542447734  0.25000000296952424  0.24999993475668364  1.0000
  Na  Na2       1.0  0.7499999164725671  0.750000071939503  0.749999974851813  1.0000
  Mn  Mn1       1.0  3.602895568836809e-08  1.1030410409350672e-07  1.957356427519443e-07  1.0000
  I   I1        1.0  0.24699908715118163  0.2469991379923698  0.7530009032480424  1.0000
  I   I2        1.0  0.753000872157802  0.7530007919455524  0.2469992150879753  1.0000
  I   I3        1.0  0.753001017486278  0.24699884991909135  0.24699911363864036  1.0000
  I   I4        1.0  0.2469991990081047  0.7530009413507993  0.7530007318608923  1.0000
  I   I5        1.0  0.24699903678309015  0.7530010258435587  0.24699902692351794  1.0000
  I   I6        1.0  0.7530007821663558  0.24699907112629665  0.7530008979504461  1.0000
