data_image0
_chemical_formula_structural       Na2MoBr6
_chemical_formula_sum              "Na2 Mo1 Br6"
_cell_length_a       7.331031152754237
_cell_length_b       7.331031113555487
_cell_length_c       7.331031436476671
_cell_angle_alpha    59.99999887543978
_cell_angle_beta     59.99999919887322
_cell_angle_gamma    60.00000118332141

_space_group_name_H-M_alt    "P 1"
_space_group_IT_number       1

loop_
  _space_group_symop_operation_xyz
  'x, y, z'

loop_
  _atom_site_type_symbol
  _atom_site_label
  _atom_site_symmetry_multiplicity
  _atom_site_fract_x
  _atom_site_fract_y
  _atom_site_fract_z
  _atom_site_occupancy
  Na  Na1       1.0  0.2500000049335373  0.2500000178691157  0.2500000121975459  1.0000
  Na  Na2       1.0  0.7499999940706419  0.7500000118415685  0.7499999614434781  1.0000
  Mo  Mo1       1.0  0.9999999072282242  4.677766950816211e-08  2.7089246566061786e-08  1.0000
  Br  Br1       1.0  0.2474585479190322  0.24745862632031623  0.7525414312476528  1.0000
  Br  Br2       1.0  0.7525414146371013  0.7525413048231306  0.24745867128391624  1.0000
  Br  Br3       1.0  0.7525414060481969  0.2474586170436399  0.2474586444449196  1.0000
  Br  Br4       1.0  0.24745870677714715  0.7525413358180147  0.7525412929771979  1.0000
  Br  Br5       1.0  0.24745862674140046  0.7525413465227353  0.2474586797118526  1.0000
  Br  Br6       1.0  0.752541384672378  0.2474586932117358  0.7525412704358975  1.0000
