data_image0
_chemical_formula_structural       Na2MoF6
_chemical_formula_sum              "Na2 Mo1 F6"
_cell_length_a       5.754605313922667
_cell_length_b       5.754605205772537
_cell_length_c       5.754605424330769
_cell_angle_alpha    59.999998582691866
_cell_angle_beta     59.99999915664413
_cell_angle_gamma    59.99999905882443

_space_group_name_H-M_alt    "P 1"
_space_group_IT_number       1

loop_
  _space_group_symop_operation_xyz
  'x, y, z'

loop_
  _atom_site_type_symbol
  _atom_site_label
  _atom_site_symmetry_multiplicity
  _atom_site_fract_x
  _atom_site_fract_y
  _atom_site_fract_z
  _atom_site_occupancy
  Na  Na1       1.0  0.24999996718861128  0.2500000130077753  0.2499999949252296  1.0000
  Na  Na2       1.0  0.7500000380542088  0.7499999666615833  0.7500000239596551  1.0000
  Mo  Mo1       1.0  1.805910979326512e-08  3.7609123605658737e-17  0.9999999979213995  1.0000
  F   F1        1.0  0.24489941664592962  0.24489934600993377  0.7551005911692823  1.0000
  F   F2        1.0  0.7551006236405247  0.7551006549422906  0.2448993647975802  1.0000
  F   F3        1.0  0.7551005311395713  0.24489943267164352  0.2448994604277612  1.0000
  F   F4        1.0  0.2448994117779296  0.7551005533825745  0.7551005690499675  1.0000
  F   F5        1.0  0.2448994229300192  0.7551005773222887  0.2448994250138958  1.0000
  F   F6        1.0  0.7551005794542016  0.2448994470410876  0.7551005642645868  1.0000
