data_image0
_chemical_formula_structural       Na2MoCl6
_chemical_formula_sum              "Na2 Mo1 Cl6"
_cell_length_a       6.957993292276301
_cell_length_b       6.957993378700766
_cell_length_c       6.957993548868501
_cell_angle_alpha    59.99999818968983
_cell_angle_beta     59.99999908097381
_cell_angle_gamma    60.00000109517203

_space_group_name_H-M_alt    "P 1"
_space_group_IT_number       1

loop_
  _space_group_symop_operation_xyz
  'x, y, z'

loop_
  _atom_site_type_symbol
  _atom_site_label
  _atom_site_symmetry_multiplicity
  _atom_site_fract_x
  _atom_site_fract_y
  _atom_site_fract_z
  _atom_site_occupancy
  Na  Na1       1.0  0.25000003262983056  0.2500000052416599  0.2499999920383511  1.0000
  Na  Na2       1.0  0.7500000120310922  0.7499999347558517  0.7500000221617231  1.0000
  Mo  Mo1       1.0  1.6598267362651078e-08  0.9999998257403613  0.9999998416933588  1.0000
  Cl  Cl1       1.0  0.24417285127120533  0.24417294126073832  0.7558270695486075  1.0000
  Cl  Cl2       1.0  0.7558270889542448  0.7558271377924451  0.24417288997427186  1.0000
  Cl  Cl3       1.0  0.7558269880514533  0.24417302264220414  0.24417302998797627  1.0000
  Cl  Cl4       1.0  0.24417288443227056  0.7558272148288322  0.7558270595347418  1.0000
  Cl  Cl5       1.0  0.24417298813766447  0.7558270434382542  0.244173011637214  1.0000
  Cl  Cl6       1.0  0.7558271394998082  0.24417289655925756  0.7558270932966111  1.0000
