data_image0
_chemical_formula_structural       Na2NbF6
_chemical_formula_sum              "Na2 Nb1 F6"
_cell_length_a       5.798538942185811
_cell_length_b       5.798539282227659
_cell_length_c       5.798539890200919
_cell_angle_alpha    59.999995045431554
_cell_angle_beta     59.99999591608321
_cell_angle_gamma    59.99999855761121

_space_group_name_H-M_alt    "P 1"
_space_group_IT_number       1

loop_
  _space_group_symop_operation_xyz
  'x, y, z'

loop_
  _atom_site_type_symbol
  _atom_site_label
  _atom_site_symmetry_multiplicity
  _atom_site_fract_x
  _atom_site_fract_y
  _atom_site_fract_z
  _atom_site_occupancy
  Na  Na1       1.0  0.2500000107182489  0.25000001099939057  0.25000001899812685  1.0000
  Na  Na2       1.0  0.7500000328001754  0.7499999295022791  0.7500000066698609  1.0000
  Nb  Nb1       1.0  3.9968815793866565e-08  0.9999999577567772  3.9077790167875094e-08  1.0000
  F   F1        1.0  0.24302768988638945  0.24302770547121924  0.7569723071630489  1.0000
  F   F2        1.0  0.7569721904988235  0.7569723659844384  0.24302773976826383  1.0000
  F   F3        1.0  0.7569722802513692  0.24302781047790958  0.24302773916180137  1.0000
  F   F4        1.0  0.24302776946201507  0.756972153257535  0.756972166592922  1.0000
  F   F5        1.0  0.24302774968636506  0.7569722278531342  0.24302785037393385  1.0000
  F   F6        1.0  0.7569722267468163  0.24302785416332837  0.7569722070621598  1.0000
