data_image0
_chemical_formula_structural       Na2NiCl6
_chemical_formula_sum              "Na2 Ni1 Cl6"
_cell_length_a       6.6531532503868585
_cell_length_b       6.653153788135825
_cell_length_c       6.653152572238814
_cell_angle_alpha    60.00000845049293
_cell_angle_beta     60.00000377959967
_cell_angle_gamma    60.00000602109726

_space_group_name_H-M_alt    "P 1"
_space_group_IT_number       1

loop_
  _space_group_symop_operation_xyz
  'x, y, z'

loop_
  _atom_site_type_symbol
  _atom_site_label
  _atom_site_symmetry_multiplicity
  _atom_site_fract_x
  _atom_site_fract_y
  _atom_site_fract_z
  _atom_site_occupancy
  Na  Na1       1.0  0.24999990441700054  0.2500000608690932  0.250000069849164  1.0000
  Na  Na2       1.0  0.7500000663084183  0.750000143949459  0.7499999095582438  1.0000
  Ni  Ni1       1.0  0.9999998318062044  8.283817631647942e-08  0.9999999705315619  1.0000
  Cl  Cl1       1.0  0.24484805663295284  0.24484797720029366  0.7551519548848072  1.0000
  Cl  Cl2       1.0  0.7551520361148593  0.7551518355175493  0.24484814002214264  1.0000
  Cl  Cl3       1.0  0.7551520915259813  0.24484799357926934  0.24484793459605092  1.0000
  Cl  Cl4       1.0  0.24484816627530012  0.7551518706823228  0.7551518325674518  1.0000
  Cl  Cl5       1.0  0.24484805125389753  0.7551518501925415  0.24484799955776618  1.0000
  Cl  Cl6       1.0  0.755151803594562  0.24484818158626126  0.7551521032653364  1.0000
