data_image0
_chemical_formula_structural       Na2NiBr6
_chemical_formula_sum              "Na2 Ni1 Br6"
_cell_length_a       6.970556502102188
_cell_length_b       6.970556521919917
_cell_length_c       6.970556609854903
_cell_angle_alpha    60.00000053736757
_cell_angle_beta     60.0000006329308
_cell_angle_gamma    60.00000197856024

_space_group_name_H-M_alt    "P 1"
_space_group_IT_number       1

loop_
  _space_group_symop_operation_xyz
  'x, y, z'

loop_
  _atom_site_type_symbol
  _atom_site_label
  _atom_site_symmetry_multiplicity
  _atom_site_fract_x
  _atom_site_fract_y
  _atom_site_fract_z
  _atom_site_occupancy
  Na  Na1       1.0  0.2500000058960579  0.2499999868878038  0.2499999968246599  1.0000
  Na  Na2       1.0  0.7500000302370924  0.7499999975609565  0.7500000030504955  1.0000
  Ni  Ni1       1.0  4.1129281539355096e-08  0.9999999859437937  5.532453454276939e-08  1.0000
  Br  Br1       1.0  0.2465401510445764  0.24654021098507525  0.753459821482227  1.0000
  Br  Br2       1.0  0.753459933561701  0.7534598665860602  0.24654010472596705  1.0000
  Br  Br3       1.0  0.753459821944896  0.24654011462294234  0.24654013017267887  1.0000
  Br  Br4       1.0  0.2465401113995318  0.7534598452274527  0.7534598975308775  1.0000
  Br  Br5       1.0  0.2465401214608951  0.7534598472043299  0.2465401119629685  1.0000
  Br  Br6       1.0  0.7534597826342488  0.24654014075847955  0.7534598904861208  1.0000
