data_image0
_chemical_formula_structural       Na2NbI6
_chemical_formula_sum              "Na2 Nb1 I6"
_cell_length_a       8.095364128612191
_cell_length_b       8.095364048314128
_cell_length_c       8.095363784019963
_cell_angle_alpha    60.00000192227648
_cell_angle_beta     60.00000062070155
_cell_angle_gamma    59.99999856310872

_space_group_name_H-M_alt    "P 1"
_space_group_IT_number       1

loop_
  _space_group_symop_operation_xyz
  'x, y, z'

loop_
  _atom_site_type_symbol
  _atom_site_label
  _atom_site_symmetry_multiplicity
  _atom_site_fract_x
  _atom_site_fract_y
  _atom_site_fract_z
  _atom_site_occupancy
  Na  Na1       1.0  0.24999997347631692  0.2500000140438683  0.2500000184481176  1.0000
  Na  Na2       1.0  0.750000018776981  0.7500000209510496  0.7499999685848922  1.0000
  Nb  Nb1       1.0  2.200125900092738e-08  0.9999999682291697  0.9999998838278413  1.0000
  I   I1        1.0  0.24524486566480036  0.24524487452753924  0.754755118391555  1.0000
  I   I2        1.0  0.7547551545548182  0.75475511508048  0.24524485141096938  1.0000
  I   I3        1.0  0.7547551608749464  0.2452448684264959  0.24524478931821947  1.0000
  I   I4        1.0  0.2452447526385945  0.7547552316229781  0.7547552947324621  1.0000
  I   I5        1.0  0.24524485441971075  0.7547551480841861  0.24524481887452326  1.0000
  I   I6        1.0  0.7547551930320473  0.2452447598274181  0.7547552584530095  1.0000
