data_image0
_chemical_formula_structural       Na2NbCl6
_chemical_formula_sum              "Na2 Nb1 Cl6"
_cell_length_a       6.969569021053231
_cell_length_b       6.969569112602544
_cell_length_c       6.969569362832104
_cell_angle_alpha    59.99999906485943
_cell_angle_beta     59.99999962331552
_cell_angle_gamma    60.00000147585735

_space_group_name_H-M_alt    "P 1"
_space_group_IT_number       1

loop_
  _space_group_symop_operation_xyz
  'x, y, z'

loop_
  _atom_site_type_symbol
  _atom_site_label
  _atom_site_symmetry_multiplicity
  _atom_site_fract_x
  _atom_site_fract_y
  _atom_site_fract_z
  _atom_site_occupancy
  Na  Na1       1.0  0.2500000136900688  0.25000004715015184  0.25000002242536157  1.0000
  Na  Na2       1.0  0.7499999827185303  0.749999928820194  0.7500000836779157  1.0000
  Nb  Nb1       1.0  0.9999999360720462  0.9999999929708993  2.4779224769008602e-09  1.0000
  Cl  Cl1       1.0  0.2448313228636395  0.244831334855056  0.7551686362010896  1.0000
  Cl  Cl2       1.0  0.7551687147460815  0.7551686815326133  0.2448312784380331  1.0000
  Cl  Cl3       1.0  0.7551686808297082  0.24483128417051742  0.2448312821806378  1.0000
  Cl  Cl4       1.0  0.2448313053022566  0.7551687673626484  0.7551687037562053  1.0000
  Cl  Cl5       1.0  0.24483125520596444  0.7551687841190509  0.24483119383976196  1.0000
  Cl  Cl6       1.0  0.7551687767816597  0.24483117955037179  0.7551688116663144  1.0000
