data_image0
_chemical_formula_structural       Na2NbBr6
_chemical_formula_sum              "Na2 Nb1 Br6"
_cell_length_a       7.440498735461904
_cell_length_b       7.4404987791836925
_cell_length_c       7.440498844733581
_cell_angle_alpha    59.9999992824218
_cell_angle_beta     59.999998606329456
_cell_angle_gamma    60.00000009742463

_space_group_name_H-M_alt    "P 1"
_space_group_IT_number       1

loop_
  _space_group_symop_operation_xyz
  'x, y, z'

loop_
  _atom_site_type_symbol
  _atom_site_label
  _atom_site_symmetry_multiplicity
  _atom_site_fract_x
  _atom_site_fract_y
  _atom_site_fract_z
  _atom_site_occupancy
  Na  Na1       1.0  0.24999998186578665  0.24999997822377087  0.2500000305566425  1.0000
  Na  Na2       1.0  0.7500000003204  0.7500000219120754  0.7499999723041728  1.0000
  Nb  Nb1       1.0  0.9999999986202148  1.8106573355107973e-08  0.9999999244368105  1.0000
  Br  Br1       1.0  0.24505868989403326  0.24505867060028674  0.7549413220220073  1.0000
  Br  Br2       1.0  0.7549412849091464  0.754941309782934  0.24505869843861225  1.0000
  Br  Br3       1.0  0.7549412975403039  0.24505869741983313  0.24505869028673918  1.0000
  Br  Br4       1.0  0.24505865713369326  0.7549413619738891  0.7549413087971961  1.0000
  Br  Br5       1.0  0.24505876613549119  0.7549412770931995  0.2450587553684299  1.0000
  Br  Br6       1.0  0.754941317411877  0.24505867036897974  0.7549413037883821  1.0000
