data_image0
_chemical_formula_structural       Na2OsI6
_chemical_formula_sum              "Na2 Os1 I6"
_cell_length_a       7.80123242856693
_cell_length_b       7.801232451186672
_cell_length_c       7.801232130936156
_cell_angle_alpha    60.000002186664325
_cell_angle_beta     59.999999223457166
_cell_angle_gamma    59.99999885543499

_space_group_name_H-M_alt    "P 1"
_space_group_IT_number       1

loop_
  _space_group_symop_operation_xyz
  'x, y, z'

loop_
  _atom_site_type_symbol
  _atom_site_label
  _atom_site_symmetry_multiplicity
  _atom_site_fract_x
  _atom_site_fract_y
  _atom_site_fract_z
  _atom_site_occupancy
  Na  Na1       1.0  0.24999998266325776  0.24999997661400314  0.2500000507025698  1.0000
  Na  Na2       1.0  0.7500000301291572  0.7500000208983887  0.7499999539889821  1.0000
  Os  Os1       1.0  0.9999998745000586  6.122756918447963e-08  0.9999999154879482  1.0000
  I   I1        1.0  0.24572758745132608  0.2457276213306944  0.7542723945239602  1.0000
  I   I2        1.0  0.7542724715387138  0.7542724374092644  0.24572754620020507  1.0000
  I   I3        1.0  0.7542724288816062  0.24572757786248337  0.2457275616723466  1.0000
  I   I4        1.0  0.24572755631124316  0.7542724180799719  0.7542724665768983  1.0000
  I   I5        1.0  0.24572762795162442  0.7542723277482809  0.24572763538799314  1.0000
  I   I6        1.0  0.7542724451550925  0.24572755986847594  0.754272479978093  1.0000
