data_image0
_chemical_formula_structural       Na2OsF6
_chemical_formula_sum              "Na2 Os1 F6"
_cell_length_a       5.672449164178384
_cell_length_b       5.6724492172009295
_cell_length_c       5.6724491446435525
_cell_angle_alpha    60.00000020823573
_cell_angle_beta     59.999999405521464
_cell_angle_gamma    59.99999887843361

_space_group_name_H-M_alt    "P 1"
_space_group_IT_number       1

loop_
  _space_group_symop_operation_xyz
  'x, y, z'

loop_
  _atom_site_type_symbol
  _atom_site_label
  _atom_site_symmetry_multiplicity
  _atom_site_fract_x
  _atom_site_fract_y
  _atom_site_fract_z
  _atom_site_occupancy
  Na  Na1       1.0  0.25000002859487347  0.2500000122119739  0.2499999792057317  1.0000
  Na  Na2       1.0  0.7499999771977333  0.7500000020901438  0.7500000179980627  1.0000
  Os  Os1       1.0  0.9999999651685195  0.9999999762497771  3.2816665784729423e-08  1.0000
  F   F1        1.0  0.2455920404648832  0.2455919795764848  0.7544079768695731  1.0000
  F   F2        1.0  0.754407982868764  0.7544079332474055  0.24559203585921055  1.0000
  F   F3        1.0  0.7544080614043169  0.24559196348869156  0.24559200380292148  1.0000
  F   F4        1.0  0.24559194173525148  0.7544080832000944  0.7544080243696385  1.0000
  F   F5        1.0  0.2455919948806879  0.7544080506909159  0.24559194071122273  1.0000
  F   F6        1.0  0.7544080143657701  0.24559199599787004  0.7544079821592896  1.0000
