data_image0
_chemical_formula_structural       Na2OsBr6
_chemical_formula_sum              "Na2 Os1 Br6"
_cell_length_a       7.284486676820911
_cell_length_b       7.284486573227089
_cell_length_c       7.284486461292564
_cell_angle_alpha    60.000000090962814
_cell_angle_beta     59.99999998941192
_cell_angle_gamma    59.99999811022576

_space_group_name_H-M_alt    "P 1"
_space_group_IT_number       1

loop_
  _space_group_symop_operation_xyz
  'x, y, z'

loop_
  _atom_site_type_symbol
  _atom_site_label
  _atom_site_symmetry_multiplicity
  _atom_site_fract_x
  _atom_site_fract_y
  _atom_site_fract_z
  _atom_site_occupancy
  Na  Na1       1.0  0.25000001550844003  0.25000003427174394  0.2499999915823779  1.0000
  Na  Na2       1.0  0.7499999934489542  0.7499999767173053  0.7500000011863838  1.0000
  Os  Os1       1.0  0.9999999711788314  1.5131752038764813e-08  0.9999998270104803  1.0000
  Br  Br1       1.0  0.24269320962905716  0.24269325755967053  0.7573068144410123  1.0000
  Br  Br2       1.0  0.757306771933002  0.757306721484571  0.2426932423173301  1.0000
  Br  Br3       1.0  0.7573068244612812  0.24269320587508833  0.24269318797316541  1.0000
  Br  Br4       1.0  0.24269311452419604  0.7573068723661903  0.7573068679305569  1.0000
  Br  Br5       1.0  0.24269321071961603  0.7573067988995978  0.24269317996458986  1.0000
  Br  Br6       1.0  0.7573068834211033  0.2426931229802479  0.7573068737966663  1.0000
