data_image0
_chemical_formula_structural       Na2OsCl6
_chemical_formula_sum              "Na2 Os1 Cl6"
_cell_length_a       6.859773098760395
_cell_length_b       6.859773061019691
_cell_length_c       6.859773424495096
_cell_angle_alpha    59.99999973481847
_cell_angle_beta     60.00000051317723
_cell_angle_gamma    60.0000015407933

_space_group_name_H-M_alt    "P 1"
_space_group_IT_number       1

loop_
  _space_group_symop_operation_xyz
  'x, y, z'

loop_
  _atom_site_type_symbol
  _atom_site_label
  _atom_site_symmetry_multiplicity
  _atom_site_fract_x
  _atom_site_fract_y
  _atom_site_fract_z
  _atom_site_occupancy
  Na  Na1       1.0  0.24999998622381256  0.2500000386453013  0.24999998086584557  1.0000
  Na  Na2       1.0  0.7499999976614602  0.7499999838161988  0.750000034353374  1.0000
  Os  Os1       1.0  0.9999999176382915  0.9999999642919702  1.2755024986962366e-07  1.0000
  Cl  Cl1       1.0  0.24178565101061397  0.24178570198641064  0.7582143031325601  1.0000
  Cl  Cl2       1.0  0.7582144172930582  0.7582143954619512  0.24178561051741965  1.0000
  Cl  Cl3       1.0  0.7582142691043208  0.24178572020633643  0.2417858203677681  1.0000
  Cl  Cl4       1.0  0.2417856971837109  0.7582142540493239  0.7582141519487382  1.0000
  Cl  Cl5       1.0  0.24178567224377703  0.7582142458363396  0.24178585657103818  1.0000
  Cl  Cl6       1.0  0.7582143201951037  0.24178571056530698  0.7582141334636621  1.0000
