data_image0
_chemical_formula_structural       Na2PdCl6
_chemical_formula_sum              "Na2 Pd1 Cl6"
_cell_length_a       6.787954301747958
_cell_length_b       6.787954120219694
_cell_length_c       6.787954385351124
_cell_angle_alpha    59.999997944152234
_cell_angle_beta     59.99999862395749
_cell_angle_gamma    60.000000614304895

_space_group_name_H-M_alt    "P 1"
_space_group_IT_number       1

loop_
  _space_group_symop_operation_xyz
  'x, y, z'

loop_
  _atom_site_type_symbol
  _atom_site_label
  _atom_site_symmetry_multiplicity
  _atom_site_fract_x
  _atom_site_fract_y
  _atom_site_fract_z
  _atom_site_occupancy
  Na  Na1       1.0  0.2500000566993779  0.24999997333937893  0.24999998278649893  1.0000
  Na  Na2       1.0  0.7499999873047399  0.7500000499271305  0.7499999556501251  1.0000
  Pd  Pd1       1.0  1.0560188419020031e-08  4.276171203886548e-07  0.9999997750185515  1.0000
  Cl  Cl1       1.0  0.24474551658551383  0.24474544942097679  0.7552545925567521  1.0000
  Cl  Cl2       1.0  0.7552543541863862  0.7552542617030726  0.24474574030659527  1.0000
  Cl  Cl3       1.0  0.7552543425805737  0.24474568962432353  0.2447456798602974  1.0000
  Cl  Cl4       1.0  0.24474572072243325  0.7552541838859803  0.7552542088955508  1.0000
  Cl  Cl5       1.0  0.24474567907817868  0.7552542676307525  0.2447457322377565  1.0000
  Cl  Cl6       1.0  0.7552543381387604  0.24474570331129805  0.7552543105753935  1.0000
