data_image0
_chemical_formula_structural       Na2PbBr6
_chemical_formula_sum              "Na2 Pb1 Br6"
_cell_length_a       7.524478639393815
_cell_length_b       7.524478473654077
_cell_length_c       7.5244784698373035
_cell_angle_alpha    60.00000116749781
_cell_angle_beta     60.00000006745238
_cell_angle_gamma    60.00000079760058

_space_group_name_H-M_alt    "P 1"
_space_group_IT_number       1

loop_
  _space_group_symop_operation_xyz
  'x, y, z'

loop_
  _atom_site_type_symbol
  _atom_site_label
  _atom_site_symmetry_multiplicity
  _atom_site_fract_x
  _atom_site_fract_y
  _atom_site_fract_z
  _atom_site_occupancy
  Na  Na1       1.0  0.25000002479253514  0.249999995410416  0.24999998216406896  1.0000
  Na  Na2       1.0  0.7499999528495934  0.7500000285509463  0.750000000715318  1.0000
  Pb  Pb1       1.0  1.1622370754227023e-09  1.953216942720258e-08  3.749664435572324e-08  1.0000
  Br  Br1       1.0  0.26208338630810696  0.26208338249163265  0.7379166763629396  1.0000
  Br  Br2       1.0  0.7379166417282356  0.7379166007777139  0.2620834465258856  1.0000
  Br  Br3       1.0  0.73791669701375  0.26208331184637734  0.2620833335298045  1.0000
  Br  Br4       1.0  0.2620834431276742  0.7379165330701054  0.7379165951595712  1.0000
  Br  Br5       1.0  0.2620833300677784  0.7379166656244665  0.262083330741945  1.0000
  Br  Br6       1.0  0.7379165268202507  0.2620834673915026  0.7379166008403722  1.0000
