data_image0
_chemical_formula_structural       Na2PtF6
_chemical_formula_sum              "Na2 Pt1 F6"
_cell_length_a       5.713602334028718
_cell_length_b       5.713602208843276
_cell_length_c       5.713602369030705
_cell_angle_alpha    59.999999553106264
_cell_angle_beta     59.999999548433465
_cell_angle_gamma    59.99999987095521

_space_group_name_H-M_alt    "P 1"
_space_group_IT_number       1

loop_
  _space_group_symop_operation_xyz
  'x, y, z'

loop_
  _atom_site_type_symbol
  _atom_site_label
  _atom_site_symmetry_multiplicity
  _atom_site_fract_x
  _atom_site_fract_y
  _atom_site_fract_z
  _atom_site_occupancy
  Na  Na1       1.0  0.2500000637841873  0.24999992089279743  0.25000001605988476  1.0000
  Na  Na2       1.0  0.7499999750423147  0.7500000842123811  0.7499999535627621  1.0000
  Pt  Pt1       1.0  3.4254891121003606e-08  0.9999999699901612  8.378729469485964e-09  1.0000
  F   F1        1.0  0.2428107141943196  0.24281075627413498  0.7571892408575174  1.0000
  F   F2        1.0  0.7571892493449777  0.7571893109942809  0.2428107073237647  1.0000
  F   F3        1.0  0.757189265643449  0.24281070414466233  0.24281076614875813  1.0000
  F   F4        1.0  0.2428107355202217  0.757189262376437  0.7571892415973439  1.0000
  F   F5        1.0  0.2428107216153738  0.7571892655212397  0.24281077431186587  1.0000
  F   F6        1.0  0.7571892549289082  0.24281072029189932  0.7571892763527247  1.0000
