data_image0
_chemical_formula_structural       Na2PF6
_chemical_formula_sum              "Na2 P1 F6"
_cell_length_a       5.458010680153054
_cell_length_b       5.458009983670642
_cell_length_c       5.458011079362959
_cell_angle_alpha    59.999996350356994
_cell_angle_beta     60.000000181005795
_cell_angle_gamma    59.999999459756616

_space_group_name_H-M_alt    "P 1"
_space_group_IT_number       1

loop_
  _space_group_symop_operation_xyz
  'x, y, z'

loop_
  _atom_site_type_symbol
  _atom_site_label
  _atom_site_symmetry_multiplicity
  _atom_site_fract_x
  _atom_site_fract_y
  _atom_site_fract_z
  _atom_site_occupancy
  Na  Na1       1.0  0.24999999817639576  0.24999998732768167  0.2500000343605056  1.0000
  Na  Na2       1.0  0.749999976896608  0.7500001100831134  0.750000065330314  1.0000
  P   P1        1.0  0.9999999830971634  0.9999999618530113  0.9999999982102036  1.0000
  F   F1        1.0  0.2207342335377989  0.22073418610070503  0.7792657446603183  1.0000
  F   F2        1.0  0.779265762394347  0.7792657789175992  0.2207341396361259  1.0000
  F   F3        1.0  0.7792658122747048  0.22073423882880971  0.22073413816197968  1.0000
  F   F4        1.0  0.22073411625494432  0.7792658585819809  0.779265874870364  1.0000
  F   F5        1.0  0.22073417955080435  0.7792658024970838  0.2207341725062555  1.0000
  F   F6        1.0  0.779265847880801  0.2207341378378802  0.7792658494591603  1.0000
