data_image0
_chemical_formula_structural       Na2PbCl6
_chemical_formula_sum              "Na2 Pb1 Cl6"
_cell_length_a       7.088652279656952
_cell_length_b       7.088652617090339
_cell_length_c       7.088652890688304
_cell_angle_alpha    59.99999786687193
_cell_angle_beta     59.99999878704999
_cell_angle_gamma    59.99999733218045

_space_group_name_H-M_alt    "P 1"
_space_group_IT_number       1

loop_
  _space_group_symop_operation_xyz
  'x, y, z'

loop_
  _atom_site_type_symbol
  _atom_site_label
  _atom_site_symmetry_multiplicity
  _atom_site_fract_x
  _atom_site_fract_y
  _atom_site_fract_z
  _atom_site_occupancy
  Na  Na1       1.0  0.25000005037546214  0.2500000203769357  0.24999997240112568  1.0000
  Na  Na2       1.0  0.7500000748315365  0.7499999332770015  0.7500000164562942  1.0000
  Pb  Pb1       1.0  0.9999999465413377  0.9999999844502153  0.9999999470404961  1.0000
  Cl  Cl1       1.0  0.2563443345024105  0.25634442574063704  0.7436555705111867  1.0000
  Cl  Cl2       1.0  0.7436556724156674  0.7436556091177491  0.2563443945673089  1.0000
  Cl  Cl3       1.0  0.7436557419235882  0.2563443760700572  0.2563443940597458  1.0000
  Cl  Cl4       1.0  0.25634432368436527  0.7436557417205257  0.743655567921567  1.0000
  Cl  Cl5       1.0  0.25634430728282176  0.7436556250701398  0.25634444242433485  1.0000
  Cl  Cl6       1.0  0.7436555461053888  0.25634428884545857  0.7436556881045926  1.0000
