data_image0
_chemical_formula_structural       Na2PdBr6
_chemical_formula_sum              "Na2 Pd1 Br6"
_cell_length_a       7.146712307946814
_cell_length_b       7.146712185694794
_cell_length_c       7.146712184080072
_cell_angle_alpha    60.00000043194478
_cell_angle_beta     60.000000863346855
_cell_angle_gamma    59.99999949619741

_space_group_name_H-M_alt    "P 1"
_space_group_IT_number       1

loop_
  _space_group_symop_operation_xyz
  'x, y, z'

loop_
  _atom_site_type_symbol
  _atom_site_label
  _atom_site_symmetry_multiplicity
  _atom_site_fract_x
  _atom_site_fract_y
  _atom_site_fract_z
  _atom_site_occupancy
  Na  Na1       1.0  0.25000000059210076  0.25000001985826986  0.24999998664154952  1.0000
  Na  Na2       1.0  0.7499999791900127  0.7500000013084004  0.74999998076157  1.0000
  Pd  Pd1       1.0  7.497503274838342e-08  2.2278331912758468e-08  0.9999998128480808  1.0000
  Br  Br1       1.0  0.2486274884406496  0.24862745363405375  0.7513725297342552  1.0000
  Br  Br2       1.0  0.7513724405545009  0.7513724629958238  0.24862755171110718  1.0000
  Br  Br3       1.0  0.7513725005069454  0.24862751622519857  0.24862756325875265  1.0000
  Br  Br4       1.0  0.2486274845787085  0.7513725375021126  0.7513725251367586  1.0000
  Br  Br5       1.0  0.24862749848647722  0.7513724962183819  0.248627546798383  1.0000
  Br  Br6       1.0  0.7513725259810572  0.2486274975288015  0.7513724931279693  1.0000
