data_image0
_chemical_formula_structural       Na2PbI6
_chemical_formula_sum              "Na2 Pb1 I6"
_cell_length_a       8.280667407157644
_cell_length_b       8.280667619408211
_cell_length_c       8.280667787997343
_cell_angle_alpha    59.99999776400938
_cell_angle_beta     60.00000009000304
_cell_angle_gamma    60.000002741658435

_space_group_name_H-M_alt    "P 1"
_space_group_IT_number       1

loop_
  _space_group_symop_operation_xyz
  'x, y, z'

loop_
  _atom_site_type_symbol
  _atom_site_label
  _atom_site_symmetry_multiplicity
  _atom_site_fract_x
  _atom_site_fract_y
  _atom_site_fract_z
  _atom_site_occupancy
  Na  Na1       1.0  0.2499999719949531  0.25000000016153956  0.25000006062886276  1.0000
  Na  Na2       1.0  0.750000011639054  0.7499999812570902  0.7499999806429266  1.0000
  Pb  Pb1       1.0  0.9999999578280464  1.7748492876349643e-08  2.3080418308762994e-08  1.0000
  I   I1        1.0  0.26792744157336046  0.26792753497847943  0.7320725229335884  1.0000
  I   I2        1.0  0.7320725648358913  0.7320724952485121  0.2679274704700768  1.0000
  I   I3        1.0  0.7320724810854428  0.26792747863262706  0.2679275014054873  1.0000
  I   I4        1.0  0.2679275500445676  0.7320724983488825  0.7320724495018331  1.0000
  I   I5        1.0  0.2679275495316781  0.7320724354444053  0.26792748488896756  1.0000
  I   I6        1.0  0.7320724701889428  0.2679275548484739  0.7320725097497489  1.0000
