data_image0
_chemical_formula_structural       Na2PCl6
_chemical_formula_sum              "Na2 P1 Cl6"
_cell_length_a       6.719502655538844
_cell_length_b       6.719502823398059
_cell_length_c       6.719502811628036
_cell_angle_alpha    60.00000062973485
_cell_angle_beta     59.99999776550895
_cell_angle_gamma    59.999996349608956

_space_group_name_H-M_alt    "P 1"
_space_group_IT_number       1

loop_
  _space_group_symop_operation_xyz
  'x, y, z'

loop_
  _atom_site_type_symbol
  _atom_site_label
  _atom_site_symmetry_multiplicity
  _atom_site_fract_x
  _atom_site_fract_y
  _atom_site_fract_z
  _atom_site_occupancy
  Na  Na1       1.0  0.250000089537328  0.24999993680934934  0.25000002296512186  1.0000
  Na  Na2       1.0  0.7499999911432687  0.7499999726458562  0.7500000714572251  1.0000
  P   P1        1.0  0.999999970908788  0.9999999635465644  6.402463620250982e-08  1.0000
  Cl  Cl1       1.0  0.24464619180524894  0.24464634387375675  0.7553537272883539  1.0000
  Cl  Cl2       1.0  0.7553537885629867  0.7553536293749675  0.2446463035421217  1.0000
  Cl  Cl3       1.0  0.7553537854477729  0.2446463012069705  0.24464624392592998  1.0000
  Cl  Cl4       1.0  0.2446461387303499  0.7553538251461922  0.7553536878484023  1.0000
  Cl  Cl5       1.0  0.24464619496355103  0.7553537460996492  0.24464631565795913  1.0000
  Cl  Cl6       1.0  0.7553538317665691  0.24464628911991507  0.7553535627846012  1.0000
