data_image0
_chemical_formula_structural       Na2PtBr6
_chemical_formula_sum              "Na2 Pt1 Br6"
_cell_length_a       7.182212606660695
_cell_length_b       7.1822126232495185
_cell_length_c       7.182212560573291
_cell_angle_alpha    60.000000250887744
_cell_angle_beta     60.00000035225471
_cell_angle_gamma    59.99999968423379

_space_group_name_H-M_alt    "P 1"
_space_group_IT_number       1

loop_
  _space_group_symop_operation_xyz
  'x, y, z'

loop_
  _atom_site_type_symbol
  _atom_site_label
  _atom_site_symmetry_multiplicity
  _atom_site_fract_x
  _atom_site_fract_y
  _atom_site_fract_z
  _atom_site_occupancy
  Na  Na1       1.0  0.250000002673079  0.24999999568461742  0.2500000009743363  1.0000
  Na  Na2       1.0  0.7499999975119115  0.7500000041063254  0.7500000010427638  1.0000
  Pt  Pt1       1.0  0.9999999895734665  4.0925935363987734e-08  0.999999956903727  1.0000
  Br  Br1       1.0  0.24588624430419428  0.24588625493187552  0.7541137504920619  1.0000
  Br  Br2       1.0  0.7541137502133711  0.7541137329223363  0.24588625754245894  1.0000
  Br  Br3       1.0  0.7541137658816565  0.24588623672758855  0.245886229441815  1.0000
  Br  Br4       1.0  0.24588622844085922  0.754113761358107  0.7541137805361315  1.0000
  Br  Br5       1.0  0.24588624279474772  0.7541137499079112  0.2458862392816149  1.0000
  Br  Br6       1.0  0.7541137809543983  0.24588622259907453  0.7541137826956573  1.0000
