data_image0
_chemical_formula_structural       Na2PBr6
_chemical_formula_sum              "Na2 P1 Br6"
_cell_length_a       7.160009183674025
_cell_length_b       7.160009142675416
_cell_length_c       7.160009092718243
_cell_angle_alpha    60.00000041926899
_cell_angle_beta     59.99999905988881
_cell_angle_gamma    59.99999712381988

_space_group_name_H-M_alt    "P 1"
_space_group_IT_number       1

loop_
  _space_group_symop_operation_xyz
  'x, y, z'

loop_
  _atom_site_type_symbol
  _atom_site_label
  _atom_site_symmetry_multiplicity
  _atom_site_fract_x
  _atom_site_fract_y
  _atom_site_fract_z
  _atom_site_occupancy
  Na  Na1       1.0  0.24999999402991765  0.24999996856556644  0.25000001280671724  1.0000
  Na  Na2       1.0  0.7499999950221043  0.750000016881497  0.749999995914625  1.0000
  P   P1        1.0  0.9999999841496152  1.3684283004283491e-08  0.9999999535970778  1.0000
  Br  Br1       1.0  0.25069397485555184  0.2506940971655581  0.7493059571996139  1.0000
  Br  Br2       1.0  0.7493059628665036  0.7493059019657899  0.2506940731378622  1.0000
  Br  Br3       1.0  0.7493061006448144  0.25069393222410824  0.2506939502626616  1.0000
  Br  Br4       1.0  0.25069394200110295  0.7493060617756301  0.749305996659177  1.0000
  Br  Br5       1.0  0.25069398459698394  0.7493060222260705  0.2506940571105779  1.0000
  Br  Br6       1.0  0.7493060683764012  0.25069399401062814  0.7493059894506867  1.0000
