data_image0
_chemical_formula_structural       Na2PtI6
_chemical_formula_sum              "Na2 Pt1 I6"
_cell_length_a       7.751914013178838
_cell_length_b       7.751913914180544
_cell_length_c       7.751913907771185
_cell_angle_alpha    59.99999809318539
_cell_angle_beta     59.99999857516548
_cell_angle_gamma    59.99999872172058

_space_group_name_H-M_alt    "P 1"
_space_group_IT_number       1

loop_
  _space_group_symop_operation_xyz
  'x, y, z'

loop_
  _atom_site_type_symbol
  _atom_site_label
  _atom_site_symmetry_multiplicity
  _atom_site_fract_x
  _atom_site_fract_y
  _atom_site_fract_z
  _atom_site_occupancy
  Na  Na1       1.0  0.24999999890669508  0.24999998526812897  0.2500000195651442  1.0000
  Na  Na2       1.0  0.7500000072967732  0.7500000000423106  0.7499999848479817  1.0000
  Pt  Pt1       1.0  2.994107465459202e-08  4.423792233862628e-08  1.3220656690741575e-08  1.0000
  I   I1        1.0  0.2482568593746944  0.24825685516356424  0.751743119102252  1.0000
  I   I2        1.0  0.7517430901348203  0.7517431348866528  0.24825690483794274  1.0000
  I   I3        1.0  0.7517431699904903  0.2482568327480532  0.24825684440058038  1.0000
  I   I4        1.0  0.24825684832574302  0.7517431162240927  0.7517431514852462  1.0000
  I   I5        1.0  0.24825686145366638  0.7517431679349448  0.24825682826903706  1.0000
  I   I6        1.0  0.7517431378879543  0.24825686477326983  0.7517431274960364  1.0000
