data_image0
_chemical_formula_structural       Na2PtCl6
_chemical_formula_sum              "Na2 Pt1 Cl6"
_cell_length_a       6.858722568516938
_cell_length_b       6.858722407075393
_cell_length_c       6.858722345352418
_cell_angle_alpha    60.00000260112967
_cell_angle_beta     60.00000340488743
_cell_angle_gamma    60.00000468310048

_space_group_name_H-M_alt    "P 1"
_space_group_IT_number       1

loop_
  _space_group_symop_operation_xyz
  'x, y, z'

loop_
  _atom_site_type_symbol
  _atom_site_label
  _atom_site_symmetry_multiplicity
  _atom_site_fract_x
  _atom_site_fract_y
  _atom_site_fract_z
  _atom_site_occupancy
  Na  Na1       1.0  0.24999997612817318  0.2500000004457676  0.25000002444841474  1.0000
  Na  Na2       1.0  0.7500000149429366  0.7499999941946061  0.7500000015614405  1.0000
  Pt  Pt1       1.0  0.9999998922702953  0.9999999696435204  0.9999999144953552  1.0000
  Cl  Cl1       1.0  0.24143492717232545  0.24143504424151693  0.7585650132164666  1.0000
  Cl  Cl2       1.0  0.758565115476099  0.7585649825410058  0.24143493739971575  1.0000
  Cl  Cl3       1.0  0.7585650153699732  0.24143498890861692  0.24143499614897052  1.0000
  Cl  Cl4       1.0  0.2414349335598155  0.7585650968011749  0.7585650695487267  1.0000
  Cl  Cl5       1.0  0.24143500449124455  0.7585649789217874  0.24143501377355664  1.0000
  Cl  Cl6       1.0  0.7585651022021795  0.24143492643484768  0.7585650675928934  1.0000
