data_image0
_chemical_formula_structural       Na2PdI6
_chemical_formula_sum              "Na2 Pd1 I6"
_cell_length_a       7.68732874849449
_cell_length_b       7.687328856340525
_cell_length_c       7.687328891112445
_cell_angle_alpha    59.99999962606037
_cell_angle_beta     60.000000257523055
_cell_angle_gamma    59.99999957189289

_space_group_name_H-M_alt    "P 1"
_space_group_IT_number       1

loop_
  _space_group_symop_operation_xyz
  'x, y, z'

loop_
  _atom_site_type_symbol
  _atom_site_label
  _atom_site_symmetry_multiplicity
  _atom_site_fract_x
  _atom_site_fract_y
  _atom_site_fract_z
  _atom_site_occupancy
  Na  Na1       1.0  0.25000000710151554  0.2500000028771924  0.24999996428993337  1.0000
  Na  Na2       1.0  0.7500000058594015  0.7499999783607855  0.7500000171934413  1.0000
  Pd  Pd1       1.0  0.9999998600485708  0.999999987254404  1.6350492319270613e-07  1.0000
  I   I1        1.0  0.25163922664784516  0.25163917922541007  0.7483607929455786  1.0000
  I   I2        1.0  0.7483608657099683  0.7483608657405485  0.2516391468947233  1.0000
  I   I3        1.0  0.7483607675572936  0.25163915705688095  0.2516392424731062  1.0000
  I   I4        1.0  0.25163929568565957  0.7483608130287  0.7483606635092447  1.0000
  I   I5        1.0  0.2516392409566384  0.7483608334522635  0.2516392024883725  1.0000
  I   I6        1.0  0.7483607297480899  0.25163918442930366  0.7483608078181407  1.0000
