data_image0
_chemical_formula_structural       Na2ReI6
_chemical_formula_sum              "Na2 Re1 I6"
_cell_length_a       7.924029192251629
_cell_length_b       7.924029394447113
_cell_length_c       7.924029182759425
_cell_angle_alpha    60.000000820716544
_cell_angle_beta     60.000004168729646
_cell_angle_gamma    59.99999813075802

_space_group_name_H-M_alt    "P 1"
_space_group_IT_number       1

loop_
  _space_group_symop_operation_xyz
  'x, y, z'

loop_
  _atom_site_type_symbol
  _atom_site_label
  _atom_site_symmetry_multiplicity
  _atom_site_fract_x
  _atom_site_fract_y
  _atom_site_fract_z
  _atom_site_occupancy
  Na  Na1       1.0  0.24999998800980985  0.2500000072717079  0.25000000860553684  1.0000
  Na  Na2       1.0  0.7499999849607933  0.7499999939941664  0.7500000216895025  1.0000
  Re  Re1       1.0  7.225392922535064e-09  1.0510139395144841e-07  0.9999997886125443  1.0000
  I   I1        1.0  0.2441781133564826  0.2441781349488013  0.7558218224273732  1.0000
  I   I2        1.0  0.7558217625111582  0.7558218384961218  0.24417816306095888  1.0000
  I   I3        1.0  0.7558218589191161  0.24417813333381347  0.24417806404582287  1.0000
  I   I4        1.0  0.24417806819842308  0.7558220054912373  0.7558219065143321  1.0000
  I   I5        1.0  0.24417808866963547  0.7558219195575958  0.2441781029480943  1.0000
  I   I6        1.0  0.7558221318986508  0.24417785914061274  0.7558221104395026  1.0000
