data_image0
_chemical_formula_structural       Na2RhF6
_chemical_formula_sum              "Na2 Rh1 F6"
_cell_length_a       5.628555839117749
_cell_length_b       5.6285558790741765
_cell_length_c       5.6285559926009885
_cell_angle_alpha    59.99999945188265
_cell_angle_beta     59.999999504245324
_cell_angle_gamma    60.00000092086038

_space_group_name_H-M_alt    "P 1"
_space_group_IT_number       1

loop_
  _space_group_symop_operation_xyz
  'x, y, z'

loop_
  _atom_site_type_symbol
  _atom_site_label
  _atom_site_symmetry_multiplicity
  _atom_site_fract_x
  _atom_site_fract_y
  _atom_site_fract_z
  _atom_site_occupancy
  Na  Na1       1.0  0.25000008002127544  0.2499999863663174  0.2499999471362617  1.0000
  Na  Na2       1.0  0.7500000134241702  0.74999997433059  0.7499999879758498  1.0000
  Rh  Rh1       1.0  0.9999999936179493  0.9999999760645645  0.9999999991688514  1.0000
  F   F1        1.0  0.24350870942296704  0.24350877660559542  0.7564913107901163  1.0000
  F   F2        1.0  0.7564912550870023  0.7564912754811547  0.24350881898361867  1.0000
  F   F3        1.0  0.7564911991695288  0.24350872029708154  0.2435088726935019  1.0000
  F   F4        1.0  0.2435088196360605  0.756491138130237  0.7564911100102757  1.0000
  F   F5        1.0  0.24350874729436864  0.7564913057732748  0.24350880833289285  1.0000
  F   F6        1.0  0.7564911833746276  0.24350883552737063  0.7564911374087749  1.0000
