data_image0
_chemical_formula_structural       Na2RuCl6
_chemical_formula_sum              "Na2 Ru1 Cl6"
_cell_length_a       6.833245880675985
_cell_length_b       6.83324574731005
_cell_length_c       6.833245898087586
_cell_angle_alpha    59.99999926360785
_cell_angle_beta     59.99999813592631
_cell_angle_gamma    59.99999966009184

_space_group_name_H-M_alt    "P 1"
_space_group_IT_number       1

loop_
  _space_group_symop_operation_xyz
  'x, y, z'

loop_
  _atom_site_type_symbol
  _atom_site_label
  _atom_site_symmetry_multiplicity
  _atom_site_fract_x
  _atom_site_fract_y
  _atom_site_fract_z
  _atom_site_occupancy
  Na  Na1       1.0  0.2500000847559641  0.24999992292524142  0.2499999665826107  1.0000
  Na  Na2       1.0  0.7499999841472583  0.7500000214946123  0.7499999435711092  1.0000
  Ru  Ru1       1.0  4.9057752620662494e-08  0.9999999085910404  5.0444270008489174e-08  1.0000
  Cl  Cl1       1.0  0.2427363811258607  0.24273651286961248  0.7572635456149694  1.0000
  Cl  Cl2       1.0  0.7572636793603809  0.7572635480518576  0.24273639683900097  1.0000
  Cl  Cl3       1.0  0.7572636224335718  0.24273641644005428  0.24273638226908004  1.0000
  Cl  Cl4       1.0  0.24273633541839543  0.7572635620341185  0.7572637741906464  1.0000
  Cl  Cl5       1.0  0.24273628263070862  0.7572636213431647  0.2427363892965932  1.0000
  Cl  Cl6       1.0  0.7572635968214139  0.2427364808019522  0.7572635528178147  1.0000
