data_image0
_chemical_formula_structural       Na2RuBr6
_chemical_formula_sum              "Na2 Ru1 Br6"
_cell_length_a       7.213048868271024
_cell_length_b       7.2130492014279275
_cell_length_c       7.21304863530029
_cell_angle_alpha    60.0000007297264
_cell_angle_beta     60.000001616280244
_cell_angle_gamma    59.99999872742759

_space_group_name_H-M_alt    "P 1"
_space_group_IT_number       1

loop_
  _space_group_symop_operation_xyz
  'x, y, z'

loop_
  _atom_site_type_symbol
  _atom_site_label
  _atom_site_symmetry_multiplicity
  _atom_site_fract_x
  _atom_site_fract_y
  _atom_site_fract_z
  _atom_site_occupancy
  Na  Na1       1.0  0.24999995275483802  0.25000002571292235  0.25000001275944256  1.0000
  Na  Na2       1.0  0.7500000218924658  0.7499999752613318  0.7499999866074263  1.0000
  Ru  Ru1       1.0  1.437096102205302e-09  1.2055495863511882e-07  0.9999999902998957  1.0000
  Br  Br1       1.0  0.24497748475508038  0.24497753840956885  0.7550224852413271  1.0000
  Br  Br2       1.0  0.7550224595094069  0.755022404834142  0.24497756234135146  1.0000
  Br  Br3       1.0  0.7550225411771718  0.24497748134869135  0.24497743576600994  1.0000
  Br  Br4       1.0  0.24497750515324837  0.7550224822705034  0.7550225145501752  1.0000
  Br  Br5       1.0  0.24497744120965345  0.7550225263802026  0.24497745392714818  1.0000
  Br  Br6       1.0  0.7550225792158528  0.244977452520606  0.7550225668603752  1.0000
