data_image0
_chemical_formula_structural       Na2RhI6
_chemical_formula_sum              "Na2 Rh1 I6"
_cell_length_a       7.733425738258765
_cell_length_b       7.733425850259249
_cell_length_c       7.733425837633479
_cell_angle_alpha    60.00000083622724
_cell_angle_beta     59.99999978768339
_cell_angle_gamma    60.00000052259135

_space_group_name_H-M_alt    "P 1"
_space_group_IT_number       1

loop_
  _space_group_symop_operation_xyz
  'x, y, z'

loop_
  _atom_site_type_symbol
  _atom_site_label
  _atom_site_symmetry_multiplicity
  _atom_site_fract_x
  _atom_site_fract_y
  _atom_site_fract_z
  _atom_site_occupancy
  Na  Na1       1.0  0.2500000124799087  0.2499999421355327  0.2500000169666474  1.0000
  Na  Na2       1.0  0.7499999781181328  0.7500000402064833  0.7499999749538857  1.0000
  Rh  Rh1       1.0  0.9999998978744752  2.6606207986210067e-07  0.9999999878584748  1.0000
  I   I1        1.0  0.2463002665003507  0.24630010431905386  0.7536998335585225  1.0000
  I   I2        1.0  0.7536997117774868  0.7536997671637627  0.24630025227891114  1.0000
  I   I3        1.0  0.7536998192857645  0.24630019197107036  0.24630017126684312  1.0000
  I   I4        1.0  0.24630027332902357  0.7536997127695052  0.753699728274582  1.0000
  I   I5        1.0  0.24630022264192608  0.7536997451032685  0.24630028055016992  1.0000
  I   I6        1.0  0.753699815298929  0.2463002340713422  0.753699747471618  1.0000
