data_image0
_chemical_formula_structural       Na2ReBr6
_chemical_formula_sum              "Na2 Re1 Br6"
_cell_length_a       7.318430810056571
_cell_length_b       7.318430702354376
_cell_length_c       7.318430226000537
_cell_angle_alpha    60.0000028516911
_cell_angle_beta     60.00000223866289
_cell_angle_gamma    59.99999844883355

_space_group_name_H-M_alt    "P 1"
_space_group_IT_number       1

loop_
  _space_group_symop_operation_xyz
  'x, y, z'

loop_
  _atom_site_type_symbol
  _atom_site_label
  _atom_site_symmetry_multiplicity
  _atom_site_fract_x
  _atom_site_fract_y
  _atom_site_fract_z
  _atom_site_occupancy
  Na  Na1       1.0  0.24999995724376722  0.24999998664975714  0.2500000213728075  1.0000
  Na  Na2       1.0  0.7500000176051256  0.7500000051339681  0.749999957657856  1.0000
  Re  Re1       1.0  0.999999916770322  2.828227658892519e-07  0.9999997854247452  1.0000
  Br  Br1       1.0  0.2430310290739316  0.2430310094363473  0.7569689722724012  1.0000
  Br  Br2       1.0  0.7569688971831977  0.7569689103865583  0.2430310998284714  1.0000
  Br  Br3       1.0  0.7569690681247776  0.24303092029785664  0.24303091332797905  1.0000
  Br  Br4       1.0  0.2430309796063729  0.756969027974672  0.7569690933759642  1.0000
  Br  Br5       1.0  0.2430310290900143  0.7569689662262554  0.2430309824737263  1.0000
  Br  Br6       1.0  0.7569691135496993  0.24303088665634495  0.7569691720435293  1.0000
