data_image0
_chemical_formula_structural       Na2RhBr6
_chemical_formula_sum              "Na2 Rh1 Br6"
_cell_length_a       7.195950332653722
_cell_length_b       7.195950283125272
_cell_length_c       7.195950626102886
_cell_angle_alpha    59.99999856282446
_cell_angle_beta     59.99999873375945
_cell_angle_gamma    60.00000169944218

_space_group_name_H-M_alt    "P 1"
_space_group_IT_number       1

loop_
  _space_group_symop_operation_xyz
  'x, y, z'

loop_
  _atom_site_type_symbol
  _atom_site_label
  _atom_site_symmetry_multiplicity
  _atom_site_fract_x
  _atom_site_fract_y
  _atom_site_fract_z
  _atom_site_occupancy
  Na  Na1       1.0  0.25000000359911007  0.25000005724707625  0.24999996818307016  1.0000
  Na  Na2       1.0  0.7499999838131  0.7499999879261076  0.7500000182869087  1.0000
  Rh  Rh1       1.0  2.2954698830085117e-08  0.9999998059729291  1.0082256085032157e-07  1.0000
  Br  Br1       1.0  0.24518661418699247  0.24518647585483197  0.7548134573221281  1.0000
  Br  Br2       1.0  0.7548135451177969  0.7548135591064061  0.24518644830753417  1.0000
  Br  Br3       1.0  0.7548133502027523  0.24518663945135252  0.2451867141819018  1.0000
  Br  Br4       1.0  0.24518656895467358  0.7548134227417478  0.7548133534923293  1.0000
  Br  Br5       1.0  0.24518655504869363  0.7548134391151445  0.2451866496104298  1.0000
  Br  Br6       1.0  0.7548133496668524  0.24518662307795513  0.754813293266048  1.0000
