data_image0
_chemical_formula_structural       Na2ReCl6
_chemical_formula_sum              "Na2 Re1 Cl6"
_cell_length_a       6.922170341045479
_cell_length_b       6.922170408499955
_cell_length_c       6.9221704103621455
_cell_angle_alpha    59.99999862306396
_cell_angle_beta     60.0000006100013
_cell_angle_gamma    60.00000225964408

_space_group_name_H-M_alt    "P 1"
_space_group_IT_number       1

loop_
  _space_group_symop_operation_xyz
  'x, y, z'

loop_
  _atom_site_type_symbol
  _atom_site_label
  _atom_site_symmetry_multiplicity
  _atom_site_fract_x
  _atom_site_fract_y
  _atom_site_fract_z
  _atom_site_occupancy
  Na  Na1       1.0  0.2499999929469919  0.24999998202964255  0.2500000629636615  1.0000
  Na  Na2       1.0  0.7500000163634872  0.7500000487087742  0.7499999050140312  1.0000
  Re  Re1       1.0  8.984431221955424e-08  0.9999998956108549  0.9999999494870739  1.0000
  Cl  Cl1       1.0  0.24197791928426152  0.24197799524824024  0.7580220346777823  1.0000
  Cl  Cl2       1.0  0.7580220843973702  0.7580220974159423  0.2419779224870537  1.0000
  Cl  Cl3       1.0  0.7580219215648271  0.24197807249414308  0.2419780482262886  1.0000
  Cl  Cl4       1.0  0.24197801444959674  0.7580219529363476  0.7580220081709371  1.0000
  Cl  Cl5       1.0  0.24197796593717116  0.7580219786985748  0.24197801770339408  1.0000
  Cl  Cl6       1.0  0.7580219843502604  0.24197796888238188  0.7580220560357592  1.0000
