data_image0
_chemical_formula_structural       Na2RuI6
_chemical_formula_sum              "Na2 Ru1 I6"
_cell_length_a       7.725883289810995
_cell_length_b       7.725883079933702
_cell_length_c       7.725883263849951
_cell_angle_alpha    59.9999993608098
_cell_angle_beta     59.99999900172554
_cell_angle_gamma    59.99999813859547

_space_group_name_H-M_alt    "P 1"
_space_group_IT_number       1

loop_
  _space_group_symop_operation_xyz
  'x, y, z'

loop_
  _atom_site_type_symbol
  _atom_site_label
  _atom_site_symmetry_multiplicity
  _atom_site_fract_x
  _atom_site_fract_y
  _atom_site_fract_z
  _atom_site_occupancy
  Na  Na1       1.0  0.25000004289201366  0.2500000241643719  0.24999995016882157  1.0000
  Na  Na2       1.0  0.7499999402389633  0.7499999742076766  0.7500000715287478  1.0000
  Ru  Ru1       1.0  1.9263863802728468e-08  0.9999999825622603  1.4619142445649364e-08  1.0000
  I   I1        1.0  0.2479230756724964  0.24792301954023654  0.7520769177356701  1.0000
  I   I2        1.0  0.7520769300275004  0.7520770232187849  0.24792300835508418  1.0000
  I   I3        1.0  0.752076954514822  0.24792296837981614  0.24792305603678083  1.0000
  I   I4        1.0  0.24792301228191443  0.7520769982872513  0.7520769819142972  1.0000
  I   I5        1.0  0.24792306268581055  0.7520769984967637  0.24792300203968043  1.0000
  I   I6        1.0  0.7520769599986157  0.24792301572777495  0.7520769906605685  1.0000
