data_image0
_chemical_formula_structural       Na2SnBr6
_chemical_formula_sum              "Na2 Sn1 Br6"
_cell_length_a       7.408602338483231
_cell_length_b       7.408602319318679
_cell_length_c       7.408602027781002
_cell_angle_alpha    60.0000014841315
_cell_angle_beta     60.000001125367795
_cell_angle_gamma    59.99999955122558

_space_group_name_H-M_alt    "P 1"
_space_group_IT_number       1

loop_
  _space_group_symop_operation_xyz
  'x, y, z'

loop_
  _atom_site_type_symbol
  _atom_site_label
  _atom_site_symmetry_multiplicity
  _atom_site_fract_x
  _atom_site_fract_y
  _atom_site_fract_z
  _atom_site_occupancy
  Na  Na1       1.0  0.24999997555167933  0.2499999744388438  0.2500000256791296  1.0000
  Na  Na2       1.0  0.750000011037877  0.7500000208517245  0.7499999712307674  1.0000
  Sn  Sn1       1.0  6.544473836772285e-08  2.8103360221106403e-08  0.999999997768767  1.0000
  Br  Br1       1.0  0.2527250136985047  0.2527250315581769  0.7472749748197149  1.0000
  Br  Br2       1.0  0.7472749235049793  0.7472749108319479  0.2527250786325692  1.0000
  Br  Br3       1.0  0.7472750099087557  0.2527250001702604  0.2527249167082524  1.0000
  Br  Br4       1.0  0.2527249933526143  0.747275019917391  0.747275063516543  1.0000
  Br  Br5       1.0  0.25272500149088134  0.7472750134458714  0.2527249199894599  1.0000
  Br  Br6       1.0  0.7472750044311759  0.2527250033355021  0.7472750538092195  1.0000
