data_image0
_chemical_formula_structural       Na2SF6
_chemical_formula_sum              "Na2 S1 F6"
_cell_length_a       5.547898920840734
_cell_length_b       5.547898908235451
_cell_length_c       5.5478986623495805
_cell_angle_alpha    60.0000012763377
_cell_angle_beta     60.000001365409986
_cell_angle_gamma    60.00000062319004

_space_group_name_H-M_alt    "P 1"
_space_group_IT_number       1

loop_
  _space_group_symop_operation_xyz
  'x, y, z'

loop_
  _atom_site_type_symbol
  _atom_site_label
  _atom_site_symmetry_multiplicity
  _atom_site_fract_x
  _atom_site_fract_y
  _atom_site_fract_z
  _atom_site_occupancy
  Na  Na1       1.0  0.24999985443292824  0.25000000182908333  0.25000008899126036  1.0000
  Na  Na2       1.0  0.7500000958666083  0.7500000187327485  0.7499998426584418  1.0000
  S   S1        1.0  1.2832822485091686e-07  0.9999999646786683  0.9999998471499821  1.0000
  F   F1        1.0  0.2408682675540612  0.24086842139486414  0.7591316255966919  1.0000
  F   F2        1.0  0.7591315857238391  0.7591314843726401  0.24086844801067744  1.0000
  F   F3        1.0  0.7591316332726236  0.24086838304700758  0.24086836609149065  1.0000
  F   F4        1.0  0.24086838566745988  0.7591317125726534  0.7591316487226694  1.0000
  F   F5        1.0  0.240868387234462  0.7591316294550381  0.24086834602473775  1.0000
  F   F6        1.0  0.7591316670052911  0.24086839772954274  0.7591317376291709  1.0000
