data_image0
_chemical_formula_structural       Na2SnF6
_chemical_formula_sum              "Na2 Sn1 F6"
_cell_length_a       5.785254650730581
_cell_length_b       5.7852547067597495
_cell_length_c       5.785254616880701
_cell_angle_alpha    60.00000126863175
_cell_angle_beta     60.0000010195993
_cell_angle_gamma    60.000001066355324

_space_group_name_H-M_alt    "P 1"
_space_group_IT_number       1

loop_
  _space_group_symop_operation_xyz
  'x, y, z'

loop_
  _atom_site_type_symbol
  _atom_site_label
  _atom_site_symmetry_multiplicity
  _atom_site_fract_x
  _atom_site_fract_y
  _atom_site_fract_z
  _atom_site_occupancy
  Na  Na1       1.0  0.2500000088322186  0.24999997351225398  0.24999998097041493  1.0000
  Na  Na2       1.0  0.7499999920398821  0.7500000179192737  0.7500000013320604  1.0000
  Sn  Sn1       1.0  0.9999999955446028  0.9999999894149444  0.9999999988775644  1.0000
  F   F1        1.0  0.24273632550756127  0.24273636500171858  0.7572636685556035  1.0000
  F   F2        1.0  0.7572636443358162  0.7572636835891096  0.24273635426608733  1.0000
  F   F3        1.0  0.7572636886949401  0.24273627951775353  0.24273631013064248  1.0000
  F   F4        1.0  0.2427363403832026  0.7572636632225186  0.7572636841429718  1.0000
  F   F5        1.0  0.24273636908845017  0.7572636540754796  0.24273629102028643  1.0000
  F   F6        1.0  0.7572636129726982  0.24273638181328178  0.7572636940158399  1.0000
