data_image0
_chemical_formula_structural       Na2SiBr6
_chemical_formula_sum              "Na2 Si1 Br6"
_cell_length_a       7.122769413880353
_cell_length_b       7.122769491686984
_cell_length_c       7.12276972574735
_cell_angle_alpha    60.00000048909184
_cell_angle_beta     59.99999895546602
_cell_angle_gamma    60.0000013412674

_space_group_name_H-M_alt    "P 1"
_space_group_IT_number       1

loop_
  _space_group_symop_operation_xyz
  'x, y, z'

loop_
  _atom_site_type_symbol
  _atom_site_label
  _atom_site_symmetry_multiplicity
  _atom_site_fract_x
  _atom_site_fract_y
  _atom_site_fract_z
  _atom_site_occupancy
  Na  Na1       1.0  0.25000001120095183  0.2499999575912038  0.2500000203453162  1.0000
  Na  Na2       1.0  0.7500000006208792  0.750000015490321  0.7499999808975153  1.0000
  Si  Si1       1.0  9.530162106471954e-09  1.0316871665926868e-08  4.6234412751280526e-08  1.0000
  Br  Br1       1.0  0.2413271438339755  0.24132714166298921  0.7586728586517897  1.0000
  Br  Br2       1.0  0.7586727612061733  0.7586727918705302  0.24132721715983335  1.0000
  Br  Br3       1.0  0.7586728693203075  0.2413271919747258  0.2413271258209288  1.0000
  Br  Br4       1.0  0.24132716983048144  0.7586728498859365  0.7586728091165289  1.0000
  Br  Br5       1.0  0.2413271754066267  0.7586728414318556  0.24132713578522863  1.0000
  Br  Br6       1.0  0.7586728305515281  0.2413272124651554  0.7586728083264235  1.0000
