data_image0
_chemical_formula_structural       Na2SeI6
_chemical_formula_sum              "Na2 Se1 I6"
_cell_length_a       7.90004563816511
_cell_length_b       7.900045606712698
_cell_length_c       7.900045613145455
_cell_angle_alpha    60.000000269995574
_cell_angle_beta     60.00000010045685
_cell_angle_gamma    60.00000010107794

_space_group_name_H-M_alt    "P 1"
_space_group_IT_number       1

loop_
  _space_group_symop_operation_xyz
  'x, y, z'

loop_
  _atom_site_type_symbol
  _atom_site_label
  _atom_site_symmetry_multiplicity
  _atom_site_fract_x
  _atom_site_fract_y
  _atom_site_fract_z
  _atom_site_occupancy
  Na  Na1       1.0  0.2500000050439902  0.24999998921008756  0.2500000000622203  1.0000
  Na  Na2       1.0  0.7500000059922788  0.750000012588992  0.7499999936694817  1.0000
  Se  Se1       1.0  0.9999999908907325  0.999999992248495  1.4759463597966438e-08  1.0000
  I   I1        1.0  0.25998583784791646  0.2599858378281269  0.7400141623387818  1.0000
  I   I2        1.0  0.7400141686261127  0.7400141732727586  0.25998582902313716  1.0000
  I   I3        1.0  0.7400141693749122  0.259985824696549  0.2599858294294228  1.0000
  I   I4        1.0  0.25998582816717586  0.7400141693510255  0.7400141673302293  1.0000
  I   I5        1.0  0.25998581832043155  0.7400141770292008  0.2599858260857289  1.0000
  I   I6        1.0  0.7400141723415714  0.25998582011897564  0.7400141788927421  1.0000
