data_image0
_chemical_formula_structural       Na2SI6
_chemical_formula_sum              "Na2 S1 I6"
_cell_length_a       7.705852788641953
_cell_length_b       7.705852837765009
_cell_length_c       7.705852916904806
_cell_angle_alpha    59.999999899273625
_cell_angle_beta     59.999999987252664
_cell_angle_gamma    60.000000862498666

_space_group_name_H-M_alt    "P 1"
_space_group_IT_number       1

loop_
  _space_group_symop_operation_xyz
  'x, y, z'

loop_
  _atom_site_type_symbol
  _atom_site_label
  _atom_site_symmetry_multiplicity
  _atom_site_fract_x
  _atom_site_fract_y
  _atom_site_fract_z
  _atom_site_occupancy
  Na  Na1       1.0  0.24999998666093304  0.2500000045263488  0.24999999699097916  1.0000
  Na  Na2       1.0  0.7500000055732445  0.749999980202284  0.7500000224998277  1.0000
  S   S1        1.0  0.999999968290584  0.9999999602657583  3.8317258403830165e-08  1.0000
  I   I1        1.0  0.2638586294107255  0.2638586678837676  0.7361413377309994  1.0000
  I   I2        1.0  0.7361414067777421  0.7361413692940643  0.26385862187862913  1.0000
  I   I3        1.0  0.7361413504494927  0.2638586752368956  0.2638586021867099  1.0000
  I   I4        1.0  0.2638586375307707  0.7361413492259785  0.7361413891822143  1.0000
  I   I5        1.0  0.2638586359554364  0.7361413552637286  0.26385861186505183  1.0000
  I   I6        1.0  0.736141381661869  0.26385863423301353  0.7361413821684175  1.0000
