data_image0
_chemical_formula_structural       Na2SnI6
_chemical_formula_sum              "Na2 Sn1 I6"
_cell_length_a       8.098228329706004
_cell_length_b       8.098228214131861
_cell_length_c       8.098228275986783
_cell_angle_alpha    60.00000011056287
_cell_angle_beta     59.99999912145525
_cell_angle_gamma    60.000001530917515

_space_group_name_H-M_alt    "P 1"
_space_group_IT_number       1

loop_
  _space_group_symop_operation_xyz
  'x, y, z'

loop_
  _atom_site_type_symbol
  _atom_site_label
  _atom_site_symmetry_multiplicity
  _atom_site_fract_x
  _atom_site_fract_y
  _atom_site_fract_z
  _atom_site_occupancy
  Na  Na1       1.0  0.24999998822377895  0.24999996332347274  0.24999998727564063  1.0000
  Na  Na2       1.0  0.7499999968879836  0.7500000200335095  0.7500000165192329  1.0000
  Sn  Sn1       1.0  5.311793274373163e-08  0.9999999561415172  0.9999999570902965  1.0000
  I   I1        1.0  0.2586345014489068  0.25863444781614914  0.7413655046694698  1.0000
  I   I2        1.0  0.7413655439669429  0.7413655385655575  0.2586344662261591  1.0000
  I   I3        1.0  0.7413655350915611  0.2586344726250862  0.25863452539395215  1.0000
  I   I4        1.0  0.2586343805257725  0.7413655908870552  0.7413655533350267  1.0000
  I   I5        1.0  0.25863449985529213  0.7413655611863528  0.2586344608429509  1.0000
  I   I6        1.0  0.7413655046996639  0.258634449393137  0.7413655257932619  1.0000
