data_image0
_chemical_formula_structural       Na2SnCl6
_chemical_formula_sum              "Na2 Sn1 Cl6"
_cell_length_a       7.053046740145318
_cell_length_b       7.053046647149772
_cell_length_c       7.053046470441147
_cell_angle_alpha    59.999999735933336
_cell_angle_beta     60.00000061506276
_cell_angle_gamma    59.99999877771604

_space_group_name_H-M_alt    "P 1"
_space_group_IT_number       1

loop_
  _space_group_symop_operation_xyz
  'x, y, z'

loop_
  _atom_site_type_symbol
  _atom_site_label
  _atom_site_symmetry_multiplicity
  _atom_site_fract_x
  _atom_site_fract_y
  _atom_site_fract_z
  _atom_site_occupancy
  Na  Na1       1.0  0.24999998545659272  0.24999997750590106  0.25000002299284213  1.0000
  Na  Na2       1.0  0.7499999967682845  0.7500000176050449  0.7499999807147146  1.0000
  Sn  Sn1       1.0  1.914943282282322e-08  2.6047145604556847e-08  0.9999999476273427  1.0000
  Cl  Cl1       1.0  0.24749924112246321  0.2474992451657641  0.7525007521157628  1.0000
  Cl  Cl2       1.0  0.752500741417386  0.7525007047967959  0.24749930803635034  1.0000
  Cl  Cl3       1.0  0.75250086908245  0.24749915353371485  0.24749921921737236  1.0000
  Cl  Cl4       1.0  0.24749924231396533  0.7525007929558911  0.7525007697359719  1.0000
  Cl  Cl5       1.0  0.24749914021168762  0.7525008292287001  0.24749922710072708  1.0000
  Cl  Cl6       1.0  0.7525007693479597  0.24749925617901772  0.7525007791336745  1.0000
