data_image0
_chemical_formula_structural       Na2SCl6
_chemical_formula_sum              "Na2 S1 Cl6"
_cell_length_a       6.81418892624395
_cell_length_b       6.814188899306621
_cell_length_c       6.814189093420059
_cell_angle_alpha    59.99999808729017
_cell_angle_beta     59.999999745079414
_cell_angle_gamma    59.99999952773644

_space_group_name_H-M_alt    "P 1"
_space_group_IT_number       1

loop_
  _space_group_symop_operation_xyz
  'x, y, z'

loop_
  _atom_site_type_symbol
  _atom_site_label
  _atom_site_symmetry_multiplicity
  _atom_site_fract_x
  _atom_site_fract_y
  _atom_site_fract_z
  _atom_site_occupancy
  Na  Na1       1.0  0.25000000521072435  0.2499999614738798  0.2500000383716974  1.0000
  Na  Na2       1.0  0.7500000045896094  0.7500000192225217  0.7499999901323118  1.0000
  S   S1        1.0  1.1159965850596368e-08  7.189379604289946e-09  5.392894739015195e-08  1.0000
  Cl  Cl1       1.0  0.24604902920147  0.24604908663832326  0.7539509364062729  1.0000
  Cl  Cl2       1.0  0.7539510160640519  0.7539509300049805  0.24604903878137815  1.0000
  Cl  Cl3       1.0  0.7539508607805069  0.2460491490921065  0.24604916828461326  1.0000
  Cl  Cl4       1.0  0.24604913614767188  0.7539508549697812  0.7539508344273651  1.0000
  Cl  Cl5       1.0  0.24604903048492052  0.7539508939774715  0.2460490994664328  1.0000
  Cl  Cl6       1.0  0.7539509168048925  0.2460491064897271  0.7539508168625673  1.0000
