data_image0
_chemical_formula_structural       Na2SBr6
_chemical_formula_sum              "Na2 S1 Br6"
_cell_length_a       7.134887957521799
_cell_length_b       7.134887912406035
_cell_length_c       7.134888015123029
_cell_angle_alpha    59.99999967427803
_cell_angle_beta     59.999999634060856
_cell_angle_gamma    60.00000036219248

_space_group_name_H-M_alt    "P 1"
_space_group_IT_number       1

loop_
  _space_group_symop_operation_xyz
  'x, y, z'

loop_
  _atom_site_type_symbol
  _atom_site_label
  _atom_site_symmetry_multiplicity
  _atom_site_fract_x
  _atom_site_fract_y
  _atom_site_fract_z
  _atom_site_occupancy
  Na  Na1       1.0  0.2500000299476913  0.25000000911008524  0.25000001034326313  1.0000
  Na  Na2       1.0  0.7499999665680391  0.7500000135977908  0.7500000322584822  1.0000
  S   S1        1.0  0.9999999530836388  0.9999999708185141  2.543485031764661e-08  1.0000
  Br  Br1       1.0  0.25263313366373175  0.2526331242730287  0.7473668956403129  1.0000
  Br  Br2       1.0  0.7473668902832388  0.747366874403036  0.25263310321480686  1.0000
  Br  Br3       1.0  0.7473668913319464  0.2526331104663043  0.2526331317700031  1.0000
  Br  Br4       1.0  0.25263316758285354  0.7473668367130214  0.747366854326116  1.0000
  Br  Br5       1.0  0.25263313068820126  0.7473668906139066  0.25263313416303707  1.0000
  Br  Br6       1.0  0.7473668441994772  0.2526331629920125  0.7473668155051999  1.0000
