data_image0
_chemical_formula_structural       Na2SiI6
_chemical_formula_sum              "Na2 Si1 I6"
_cell_length_a       7.835337831972789
_cell_length_b       7.83533768451722
_cell_length_c       7.835338050851474
_cell_angle_alpha    59.999998477917345
_cell_angle_beta     59.999998832704506
_cell_angle_gamma    60.0000015717627

_space_group_name_H-M_alt    "P 1"
_space_group_IT_number       1

loop_
  _space_group_symop_operation_xyz
  'x, y, z'

loop_
  _atom_site_type_symbol
  _atom_site_label
  _atom_site_symmetry_multiplicity
  _atom_site_fract_x
  _atom_site_fract_y
  _atom_site_fract_z
  _atom_site_occupancy
  Na  Na1       1.0  0.24999996612621084  0.2500000015150829  0.25000000231100755  1.0000
  Na  Na2       1.0  0.7500000386491431  0.7499999904773161  0.7500000089214586  1.0000
  Si  Si1       1.0  2.5842268094098075e-08  0.9999999843689594  3.318245978766214e-08  1.0000
  I   I1        1.0  0.24512421879035  0.24512420651092276  0.7548758059796035  1.0000
  I   I2        1.0  0.7548757267684706  0.7548757995494118  0.2451242329322381  1.0000
  I   I3        1.0  0.7548758163316833  0.24512423042477458  0.24512423183493448  1.0000
  I   I4        1.0  0.24512424853881967  0.7548757271793352  0.7548757269797588  1.0000
  I   I5        1.0  0.2451242263968779  0.7548757531418557  0.24512429072440506  1.0000
  I   I6        1.0  0.7548757319630072  0.2451243029378116  0.7548756670027421  1.0000
