data_image0
_chemical_formula_structural       Na2SiCl6
_chemical_formula_sum              "Na2 Si1 Cl6"
_cell_length_a       6.691310843642102
_cell_length_b       6.691310749381184
_cell_length_c       6.691311238514726
_cell_angle_alpha    59.99999802148905
_cell_angle_beta     59.999999883711865
_cell_angle_gamma    59.99999922634769

_space_group_name_H-M_alt    "P 1"
_space_group_IT_number       1

loop_
  _space_group_symop_operation_xyz
  'x, y, z'

loop_
  _atom_site_type_symbol
  _atom_site_label
  _atom_site_symmetry_multiplicity
  _atom_site_fract_x
  _atom_site_fract_y
  _atom_site_fract_z
  _atom_site_occupancy
  Na  Na1       1.0  0.2499999331947155  0.25000005768078504  0.24999996563262236  1.0000
  Na  Na2       1.0  0.7500000175272962  0.7499999954982848  0.7500000007397876  1.0000
  Si  Si1       1.0  1.7169996953916057e-08  0.9999999743750826  0.9999999892827064  1.0000
  Cl  Cl1       1.0  0.23513614651864403  0.23513579975793814  0.7648640759615055  1.0000
  Cl  Cl2       1.0  0.7648639417188264  0.7648641307875983  0.23513602494510558  1.0000
  Cl  Cl3       1.0  0.7648639754776742  0.23513587813008158  0.23513613709968156  1.0000
  Cl  Cl4       1.0  0.23513603932150764  0.7648641329509099  0.7648638078218555  1.0000
  Cl  Cl5       1.0  0.235135995901808  0.7648640992091251  0.23513600926393907  1.0000
  Cl  Cl6       1.0  0.7648639593183428  0.23513589905940732  0.7648639823146699  1.0000
