data_image0
_chemical_formula_structural       Na2SeCl6
_chemical_formula_sum              "Na2 Se1 Cl6"
_cell_length_a       6.987017620411918
_cell_length_b       6.987017547150603
_cell_length_c       6.987017946091448
_cell_angle_alpha    59.99999762215635
_cell_angle_beta     59.99999896486147
_cell_angle_gamma    60.00000254922325

_space_group_name_H-M_alt    "P 1"
_space_group_IT_number       1

loop_
  _space_group_symop_operation_xyz
  'x, y, z'

loop_
  _atom_site_type_symbol
  _atom_site_label
  _atom_site_symmetry_multiplicity
  _atom_site_fract_x
  _atom_site_fract_y
  _atom_site_fract_z
  _atom_site_occupancy
  Na  Na1       1.0  0.249999958691975  0.2500000677781471  0.24999996346286124  1.0000
  Na  Na2       1.0  0.7500000389567574  0.7499999526716764  0.7500000058408391  1.0000
  Se  Se1       1.0  0.9999999909864182  0.9999999526720637  2.6739533447301824e-08  1.0000
  Cl  Cl1       1.0  0.24573949923886557  0.24573952417540498  0.7542605046286265  1.0000
  Cl  Cl2       1.0  0.7542605337481963  0.754260578660086  0.24573945876842787  1.0000
  Cl  Cl3       1.0  0.754260361533015  0.24573960570802045  0.24573960858312285  1.0000
  Cl  Cl4       1.0  0.24573962077513484  0.7542603814369587  0.7542603735934851  1.0000
  Cl  Cl5       1.0  0.24573961050386448  0.7542603747128311  0.24573963441118415  1.0000
  Cl  Cl6       1.0  0.754260381253262  0.24573957912730415  0.7542604226672907  1.0000
