data_image0
_chemical_formula_structural       Na2SeBr6
_chemical_formula_sum              "Na2 Se1 Br6"
_cell_length_a       7.427713471366805
_cell_length_b       7.427713389534829
_cell_length_c       7.427713348818861
_cell_angle_alpha    59.99999976143108
_cell_angle_beta     60.00000032854889
_cell_angle_gamma    59.99999981188081

_space_group_name_H-M_alt    "P 1"
_space_group_IT_number       1

loop_
  _space_group_symop_operation_xyz
  'x, y, z'

loop_
  _atom_site_type_symbol
  _atom_site_label
  _atom_site_symmetry_multiplicity
  _atom_site_fract_x
  _atom_site_fract_y
  _atom_site_fract_z
  _atom_site_occupancy
  Na  Na1       1.0  0.24999998852299798  0.2500000674189578  0.24999997830946585  1.0000
  Na  Na2       1.0  0.7500000042963099  0.7499999648173642  0.7500000275529481  1.0000
  Se  Se1       1.0  9.753730242809417e-10  0.9999998944713289  1.2497735476558828e-07  1.0000
  Br  Br1       1.0  0.24963828478891611  0.2496382834856688  0.7503617242438662  1.0000
  Br  Br2       1.0  0.7503617427808706  0.7503617471017677  0.24963827045298848  1.0000
  Br  Br3       1.0  0.750361764715423  0.2496382485292228  0.24963827281550074  1.0000
  Br  Br4       1.0  0.24963824787433106  0.7503617523782751  0.7503616957442026  1.0000
  Br  Br5       1.0  0.24963820880434284  0.750361760946293  0.2496382560988806  1.0000
  Br  Br6       1.0  0.7503617589530167  0.24963828118334214  0.7503616523357208  1.0000
