data_image0
_chemical_formula_structural       Na2TaBr6
_chemical_formula_sum              "Na2 Ta1 Br6"
_cell_length_a       7.391093094484298
_cell_length_b       7.391093039420832
_cell_length_c       7.391093159417919
_cell_angle_alpha    59.99999874850008
_cell_angle_beta     60.00000009349257
_cell_angle_gamma    60.000003916591794

_space_group_name_H-M_alt    "P 1"
_space_group_IT_number       1

loop_
  _space_group_symop_operation_xyz
  'x, y, z'

loop_
  _atom_site_type_symbol
  _atom_site_label
  _atom_site_symmetry_multiplicity
  _atom_site_fract_x
  _atom_site_fract_y
  _atom_site_fract_z
  _atom_site_occupancy
  Na  Na1       1.0  0.24999997562293647  0.24999998478607302  0.2500000598001547  1.0000
  Na  Na2       1.0  0.7500000184751032  0.749999984185218  0.7499999441494193  1.0000
  Ta  Ta1       1.0  3.281593282260763e-09  4.6397543400584485e-08  3.7397503807054784e-08  1.0000
  Br  Br1       1.0  0.2446566120641894  0.2446565568832426  0.7553433744048704  1.0000
  Br  Br2       1.0  0.755343457575955  0.7553434104309977  0.2446565344240437  1.0000
  Br  Br3       1.0  0.7553432089167442  0.2446568033161097  0.24465668373056165  1.0000
  Br  Br4       1.0  0.24465669109476523  0.7553432932484213  0.7553433575848496  1.0000
  Br  Br5       1.0  0.24465675370951565  0.7553432119588712  0.24465670006696974  1.0000
  Br  Br6       1.0  0.7553432790043626  0.24465672552837417  0.755343324670345  1.0000
