data_image0
_chemical_formula_structural       Na2TiBr6
_chemical_formula_sum              "Na2 Ti1 Br6"
_cell_length_a       7.307581961578706
_cell_length_b       7.3075820957927204
_cell_length_c       7.307582268385077
_cell_angle_alpha    59.99999920619758
_cell_angle_beta     59.99999953071603
_cell_angle_gamma    59.99999967378385

_space_group_name_H-M_alt    "P 1"
_space_group_IT_number       1

loop_
  _space_group_symop_operation_xyz
  'x, y, z'

loop_
  _atom_site_type_symbol
  _atom_site_label
  _atom_site_symmetry_multiplicity
  _atom_site_fract_x
  _atom_site_fract_y
  _atom_site_fract_z
  _atom_site_occupancy
  Na  Na1       1.0  0.24999998227566897  0.2500000012679319  0.25000001757886553  1.0000
  Na  Na2       1.0  0.7499999996097094  0.7500000255916912  0.749999947029215  1.0000
  Ti  Ti1       1.0  2.0254269882284225e-08  1.508392773874863e-08  0.9999999303301182  1.0000
  Br  Br1       1.0  0.24426163799074746  0.24426158737819853  0.7557383399470244  1.0000
  Br  Br2       1.0  0.7557383416134591  0.755738365737779  0.24426160930424015  1.0000
  Br  Br3       1.0  0.7557383535013553  0.24426162260092757  0.24426167585658953  1.0000
  Br  Br4       1.0  0.24426150329544816  0.7557385282821001  0.7557383960225247  1.0000
  Br  Br5       1.0  0.24426168183011665  0.7557383055490217  0.244261736405769  1.0000
  Br  Br6       1.0  0.7557384728520509  0.2442615537114055  0.755738341921057  1.0000
