data_image0
_chemical_formula_structural       Na2TaI6
_chemical_formula_sum              "Na2 Ta1 I6"
_cell_length_a       8.10265035288658
_cell_length_b       8.102650472199924
_cell_length_c       8.102650500567401
_cell_angle_alpha    59.99999911441227
_cell_angle_beta     59.99999924041638
_cell_angle_gamma    59.999999482857554

_space_group_name_H-M_alt    "P 1"
_space_group_IT_number       1

loop_
  _space_group_symop_operation_xyz
  'x, y, z'

loop_
  _atom_site_type_symbol
  _atom_site_label
  _atom_site_symmetry_multiplicity
  _atom_site_fract_x
  _atom_site_fract_y
  _atom_site_fract_z
  _atom_site_occupancy
  Na  Na1       1.0  0.2499999415822906  0.2500000802516587  0.2499999539751895  1.0000
  Na  Na2       1.0  0.7500000631593793  0.7499999444938962  0.7500000216712459  1.0000
  Ta  Ta1       1.0  0.9999999645159804  4.232301159265561e-08  0.9999999583214181  1.0000
  I   I1        1.0  0.24416731569266864  0.24416733796565923  0.7558326911378795  1.0000
  I   I2        1.0  0.7558326939861771  0.7558327018952563  0.2441673164438655  1.0000
  I   I3        1.0  0.7558326611047586  0.24416732986784265  0.2441673409694891  1.0000
  I   I4        1.0  0.244167359112889  0.7558326056970818  0.7558326184602188  1.0000
  I   I5        1.0  0.24416734770801363  0.7558326295091223  0.24416740965291023  1.0000
  I   I6        1.0  0.7558326602592846  0.24416732570577046  0.7558326892400186  1.0000
