data_image0
_chemical_formula_structural       Na2TeCl6
_chemical_formula_sum              "Na2 Te1 Cl6"
_cell_length_a       7.1711185394341745
_cell_length_b       7.171118365168255
_cell_length_c       7.1711185197108165
_cell_angle_alpha    60.000001431468654
_cell_angle_beta     60.000000289897095
_cell_angle_gamma    59.999998687075255

_space_group_name_H-M_alt    "P 1"
_space_group_IT_number       1

loop_
  _space_group_symop_operation_xyz
  'x, y, z'

loop_
  _atom_site_type_symbol
  _atom_site_label
  _atom_site_symmetry_multiplicity
  _atom_site_fract_x
  _atom_site_fract_y
  _atom_site_fract_z
  _atom_site_occupancy
  Na  Na1       1.0  0.24999999718643873  0.25000002989078157  0.24999998951439373  1.0000
  Na  Na2       1.0  0.7499999616184211  0.7499999427941967  0.7500000304575307  1.0000
  Te  Te1       1.0  0.9999999860774067  0.9999999982921156  4.1282821205053586e-08  1.0000
  Cl  Cl1       1.0  0.25086709981092314  0.2508671265507429  0.7491328815407939  1.0000
  Cl  Cl2       1.0  0.7491329008593914  0.7491328461342353  0.2508671439935725  1.0000
  Cl  Cl3       1.0  0.7491329962516848  0.2508670104551949  0.2508670590762565  1.0000
  Cl  Cl4       1.0  0.25086707014420523  0.7491329776007495  0.7491328673415704  1.0000
  Cl  Cl5       1.0  0.25086705554113525  0.7491329556156151  0.25086708648888983  1.0000
  Cl  Cl6       1.0  0.7491329365562334  0.25086710075574964  0.7491328986997927  1.0000
