data_image0
_chemical_formula_structural       Na2TaF6
_chemical_formula_sum              "Na2 Ta1 F6"
_cell_length_a       5.7915114169024156
_cell_length_b       5.791511565374301
_cell_length_c       5.791511208533382
_cell_angle_alpha    59.99999905040954
_cell_angle_beta     60.00000064818031
_cell_angle_gamma    59.99999402828393

_space_group_name_H-M_alt    "P 1"
_space_group_IT_number       1

loop_
  _space_group_symop_operation_xyz
  'x, y, z'

loop_
  _atom_site_type_symbol
  _atom_site_label
  _atom_site_symmetry_multiplicity
  _atom_site_fract_x
  _atom_site_fract_y
  _atom_site_fract_z
  _atom_site_occupancy
  Na  Na1       1.0  0.25000003375196084  0.24999997735451568  0.2500000060343343  1.0000
  Na  Na2       1.0  0.7500000134880116  0.7500000039641721  0.7500000450299404  1.0000
  Ta  Ta1       1.0  0.9999999703351714  0.9999999873116586  0.9999999849166193  1.0000
  F   F1        1.0  0.2390210024780779  0.23902118380669898  0.760978874834716  1.0000
  F   F2        1.0  0.7609789800348588  0.7609787763647557  0.23902111038679574  1.0000
  F   F3        1.0  0.7609789068286844  0.23902110356985268  0.2390211443038661  1.0000
  F   F4        1.0  0.23902109394960622  0.7609789094697028  0.7609788260708973  1.0000
  F   F5        1.0  0.23902106862704592  0.7609789281942891  0.23902110345787417  1.0000
  F   F6        1.0  0.76097891162947  0.23902108061581995  0.7609788602991847  1.0000
