data_image0
_chemical_formula_structural       Na2TeI6
_chemical_formula_sum              "Na2 Te1 I6"
_cell_length_a       8.154188870672403
_cell_length_b       8.154188874871432
_cell_length_c       8.154188973287964
_cell_angle_alpha    59.99999995810081
_cell_angle_beta     60.00000008483789
_cell_angle_gamma    60.00000123399953

_space_group_name_H-M_alt    "P 1"
_space_group_IT_number       1

loop_
  _space_group_symop_operation_xyz
  'x, y, z'

loop_
  _atom_site_type_symbol
  _atom_site_label
  _atom_site_symmetry_multiplicity
  _atom_site_fract_x
  _atom_site_fract_y
  _atom_site_fract_z
  _atom_site_occupancy
  Na  Na1       1.0  0.25000000193402755  0.24999995935660074  0.2500000299727951  1.0000
  Na  Na2       1.0  0.7499999592258904  0.7500000432878721  0.7499999766374513  1.0000
  Te  Te1       1.0  0.9999999402963052  0.9999999624504377  5.721117292771069e-08  1.0000
  I   I1        1.0  0.25785097065012064  0.25785095954229875  0.742149036173498  1.0000
  I   I2        1.0  0.7421490842853752  0.7421490761457894  0.2578509229698781  1.0000
  I   I3        1.0  0.7421490760488751  0.25785089068619194  0.2578509640217502  1.0000
  I   I4        1.0  0.2578509745107865  0.7421490774126853  0.7421490041241505  1.0000
  I   I5        1.0  0.2578509487696106  0.7421490538381109  0.2578509565964793  1.0000
  I   I6        1.0  0.7421490416985442  0.25785097133609913  0.7421490572065956  1.0000
