data_image0
_chemical_formula_structural       Na2TiCl6
_chemical_formula_sum              "Na2 Ti1 Cl6"
_cell_length_a       6.838632555954866
_cell_length_b       6.838632694923836
_cell_length_c       6.838632861436314
_cell_angle_alpha    60.00000008378769
_cell_angle_beta     59.99999863175089
_cell_angle_gamma    59.99999922049917

_space_group_name_H-M_alt    "P 1"
_space_group_IT_number       1

loop_
  _space_group_symop_operation_xyz
  'x, y, z'

loop_
  _atom_site_type_symbol
  _atom_site_label
  _atom_site_symmetry_multiplicity
  _atom_site_fract_x
  _atom_site_fract_y
  _atom_site_fract_z
  _atom_site_occupancy
  Na  Na1       1.0  0.250000042924079  0.25000002981878483  0.24999991861741913  1.0000
  Na  Na2       1.0  0.7499999437721911  0.7500000214013723  0.7500000490797565  1.0000
  Ti  Ti1       1.0  0.9999998378019331  5.372764473926484e-09  1.544512410370102e-07  1.0000
  Cl  Cl1       1.0  0.2431523993731033  0.24315232952581353  0.7568476167037462  1.0000
  Cl  Cl2       1.0  0.75684764930298  0.7568477181125015  0.2431522940111131  1.0000
  Cl  Cl3       1.0  0.7568477288423885  0.24315222133865702  0.24315240761944118  1.0000
  Cl  Cl4       1.0  0.24315240467122082  0.7568476275074624  0.7568475966297659  1.0000
  Cl  Cl5       1.0  0.24315236767383394  0.7568477013419974  0.2431523848619514  1.0000
  Cl  Cl6       1.0  0.7568476285564403  0.24315235166908014  0.756847569861359  1.0000
