data_image0
_chemical_formula_structural       Na2TeF6
_chemical_formula_sum              "Na2 Te1 F6"
_cell_length_a       5.983133689818886
_cell_length_b       5.983133760736424
_cell_length_c       5.983133845567258
_cell_angle_alpha    59.99999683352572
_cell_angle_beta     59.99999826366203
_cell_angle_gamma    59.99999724512985

_space_group_name_H-M_alt    "P 1"
_space_group_IT_number       1

loop_
  _space_group_symop_operation_xyz
  'x, y, z'

loop_
  _atom_site_type_symbol
  _atom_site_label
  _atom_site_symmetry_multiplicity
  _atom_site_fract_x
  _atom_site_fract_y
  _atom_site_fract_z
  _atom_site_occupancy
  Na  Na1       1.0  0.25000002956562317  0.24999997504175936  0.2500000205654844  1.0000
  Na  Na2       1.0  0.7500000181659037  0.7499999803941654  0.7499999857592461  1.0000
  Te  Te1       1.0  3.0470797356792274e-08  0.9999999201671678  0.9999999895823556  1.0000
  F   F1        1.0  0.24627863160129218  0.24627864197087537  0.7537213405914719  1.0000
  F   F2        1.0  0.75372134166252  0.7537213052770672  0.24627871207520233  1.0000
  F   F3        1.0  0.7537212347004608  0.24627884124604202  0.2462787342189736  1.0000
  F   F4        1.0  0.24627875875554803  0.7537213291244305  0.7537212920581328  1.0000
  F   F5        1.0  0.24627855217266048  0.7537214412191001  0.24627858800070276  1.0000
  F   F6        1.0  0.7537213873056777  0.24627862475459664  0.7537213386275833  1.0000
