data_image0
_chemical_formula_structural       Na2TiI6
_chemical_formula_sum              "Na2 Ti1 I6"
_cell_length_a       8.02687143488845
_cell_length_b       8.026871463170716
_cell_length_c       8.026871484241203
_cell_angle_alpha    60.00000203834444
_cell_angle_beta     60.000000711237085
_cell_angle_gamma    60.000001327988414

_space_group_name_H-M_alt    "P 1"
_space_group_IT_number       1

loop_
  _space_group_symop_operation_xyz
  'x, y, z'

loop_
  _atom_site_type_symbol
  _atom_site_label
  _atom_site_symmetry_multiplicity
  _atom_site_fract_x
  _atom_site_fract_y
  _atom_site_fract_z
  _atom_site_occupancy
  Na  Na1       1.0  0.2500000484747215  0.24999995206454315  0.2500000126843988  1.0000
  Na  Na2       1.0  0.7499999798718662  0.7500000637032408  0.7499999759626343  1.0000
  Ti  Ti1       1.0  8.224894020453897e-09  0.9999999710096859  0.9999999779915096  1.0000
  I   I1        1.0  0.24324388009477704  0.24324390713246374  0.7567560653509519  1.0000
  I   I2        1.0  0.7567561592939057  0.7567561833998114  0.24324380938131235  1.0000
  I   I3        1.0  0.7567560689325128  0.24324390412840952  0.24324390183369615  1.0000
  I   I4        1.0  0.24324387183743437  0.7567561024845395  0.7567561924865819  1.0000
  I   I5        1.0  0.2432439212776493  0.7567560262783449  0.24324389810528954  1.0000
  I   I6        1.0  0.7567560677795433  0.24324388726043858  0.7567561600551239  1.0000
