data_image0
_chemical_formula_structural       Na2TeBr6
_chemical_formula_sum              "Na2 Te1 Br6"
_cell_length_a       7.55113317161736
_cell_length_b       7.551133128511517
_cell_length_c       7.5511329625165
_cell_angle_alpha    59.999999686716656
_cell_angle_beta     60.000000640611
_cell_angle_gamma    59.99999661935522

_space_group_name_H-M_alt    "P 1"
_space_group_IT_number       1

loop_
  _space_group_symop_operation_xyz
  'x, y, z'

loop_
  _atom_site_type_symbol
  _atom_site_label
  _atom_site_symmetry_multiplicity
  _atom_site_fract_x
  _atom_site_fract_y
  _atom_site_fract_z
  _atom_site_occupancy
  Na  Na1       1.0  0.2500000199009435  0.2499999856580668  0.24999999324337083  1.0000
  Na  Na2       1.0  0.7499999519184856  0.7499999959006498  0.7500000499152841  1.0000
  Te  Te1       1.0  8.998806647767015e-08  9.245030579802888e-08  0.9999998717002846  1.0000
  Br  Br1       1.0  0.25576067933382335  0.25576064314534863  0.7442393478024169  1.0000
  Br  Br2       1.0  0.7442393170610853  0.7442393059746626  0.2557606675045412  1.0000
  Br  Br3       1.0  0.7442394182113942  0.2557605581073965  0.2557606389471575  1.0000
  Br  Br4       1.0  0.2557605762832984  0.7442394104758371  0.7442394311449172  1.0000
  Br  Br5       1.0  0.25576055959165445  0.744239441680046  0.2557605733227794  1.0000
  Br  Br6       1.0  0.7442393963794616  0.25576056907350586  0.7442394234334767  1.0000
