data_image0
_chemical_formula_structural       Na2VBr6
_chemical_formula_sum              "Na2 V1 Br6"
_cell_length_a       7.195232842698057
_cell_length_b       7.19523320637854
_cell_length_c       7.195233011309542
_cell_angle_alpha    60.00000020980305
_cell_angle_beta     60.00000022798648
_cell_angle_gamma    60.00000062139101

_space_group_name_H-M_alt    "P 1"
_space_group_IT_number       1

loop_
  _space_group_symop_operation_xyz
  'x, y, z'

loop_
  _atom_site_type_symbol
  _atom_site_label
  _atom_site_symmetry_multiplicity
  _atom_site_fract_x
  _atom_site_fract_y
  _atom_site_fract_z
  _atom_site_occupancy
  Na  Na1       1.0  0.24999998216899763  0.24999999177378723  0.2500000086706054  1.0000
  Na  Na2       1.0  0.7500000140871466  0.749999994045137  0.7500000301133601  1.0000
  V   V1        1.0  0.9999999121580644  0.9999999217005738  4.693564517367888e-08  1.0000
  Br  Br1       1.0  0.24416722459099205  0.24416719105045084  0.7558327953602895  1.0000
  Br  Br2       1.0  0.7558329026256476  0.7558329122176135  0.24416707891439585  1.0000
  Br  Br3       1.0  0.7558328148344255  0.2441671630022888  0.24416716504218564  1.0000
  Br  Br4       1.0  0.24416714770393713  0.7558328517533803  0.7558328525055437  1.0000
  Br  Br5       1.0  0.2441671456633495  0.7558328423584654  0.2441671548036425  1.0000
  Br  Br6       1.0  0.7558328578714795  0.24416712643884445  0.7558328680046522  1.0000
