data_image0
_chemical_formula_structural       Na2VI6
_chemical_formula_sum              "Na2 V1 I6"
_cell_length_a       7.8843583514219695
_cell_length_b       7.884358386377488
_cell_length_c       7.8843586529992
_cell_angle_alpha    60.00000023576015
_cell_angle_beta     59.99999941934665
_cell_angle_gamma    59.99999924570676

_space_group_name_H-M_alt    "P 1"
_space_group_IT_number       1

loop_
  _space_group_symop_operation_xyz
  'x, y, z'

loop_
  _atom_site_type_symbol
  _atom_site_label
  _atom_site_symmetry_multiplicity
  _atom_site_fract_x
  _atom_site_fract_y
  _atom_site_fract_z
  _atom_site_occupancy
  Na  Na1       1.0  0.24999999128862005  0.2500000059150375  0.25000001584134107  1.0000
  Na  Na2       1.0  0.7500000234396328  0.7499999525029162  0.7499999564281842  1.0000
  V   V1        1.0  2.461552052458576e-08  4.038802520336179e-08  0.9999999751082316  1.0000
  I   I1        1.0  0.24257631642649827  0.2425763531203264  0.7574236444859742  1.0000
  I   I2        1.0  0.7574236410803785  0.7574236363653399  0.2425763827154041  1.0000
  I   I3        1.0  0.7574237031959238  0.24257629517198473  0.24257632035588117  1.0000
  I   I4        1.0  0.24257630358772167  0.7574236958670668  0.757423695382094  1.0000
  I   I5        1.0  0.2425762930257826  0.7574236597798303  0.2425763647680236  1.0000
  I   I6        1.0  0.7574236948812014  0.24257634834646333  0.7574236632796674  1.0000
