data_image0
_chemical_formula_structural       Na2VCl6
_chemical_formula_sum              "Na2 V1 Cl6"
_cell_length_a       6.819160508540705
_cell_length_b       6.819160298959487
_cell_length_c       6.81916047587077
_cell_angle_alpha    60.00000176333359
_cell_angle_beta     59.99999981795226
_cell_angle_gamma    60.000002120806805

_space_group_name_H-M_alt    "P 1"
_space_group_IT_number       1

loop_
  _space_group_symop_operation_xyz
  'x, y, z'

loop_
  _atom_site_type_symbol
  _atom_site_label
  _atom_site_symmetry_multiplicity
  _atom_site_fract_x
  _atom_site_fract_y
  _atom_site_fract_z
  _atom_site_occupancy
  Na  Na1       1.0  0.24999997270690624  0.24999998652913996  0.2500000631222675  1.0000
  Na  Na2       1.0  0.7499999297156417  0.750000061961394  0.7500000297304236  1.0000
  V   V1        1.0  1.2728029642236464e-07  5.477905766872564e-07  0.9999994908892013  1.0000
  Cl  Cl1       1.0  0.24100286233460708  0.24100276967942574  0.7589971183631838  1.0000
  Cl  Cl2       1.0  0.7589968660256556  0.7589968459667407  0.24100312983075164  1.0000
  Cl  Cl3       1.0  0.7589969808078872  0.24100296067239532  0.24100297634109719  1.0000
  Cl  Cl4       1.0  0.24100295421618853  0.7589970357331314  0.7589970617292606  1.0000
  Cl  Cl5       1.0  0.24100316495912966  0.758996820312839  0.24100306722641465  1.0000
  Cl  Cl6       1.0  0.7589971281973618  0.24100292464784404  0.7589970817432432  1.0000
