data_image0
_chemical_formula_structural       Na2WI6
_chemical_formula_sum              "Na2 W1 I6"
_cell_length_a       7.9893190001423395
_cell_length_b       7.989318960812841
_cell_length_c       7.989319234428929
_cell_angle_alpha    59.99999885839273
_cell_angle_beta     59.999997425763624
_cell_angle_gamma    60.00000087690245

_space_group_name_H-M_alt    "P 1"
_space_group_IT_number       1

loop_
  _space_group_symop_operation_xyz
  'x, y, z'

loop_
  _atom_site_type_symbol
  _atom_site_label
  _atom_site_symmetry_multiplicity
  _atom_site_fract_x
  _atom_site_fract_y
  _atom_site_fract_z
  _atom_site_occupancy
  Na  Na1       1.0  0.25000004035977197  0.24999999180521643  0.24999998747719332  1.0000
  Na  Na2       1.0  0.7499999876578197  0.7500000244709363  0.7499999808329354  1.0000
  W   W1        1.0  0.9999999262894299  0.9999999999999972  0.9999998503562934  1.0000
  I   I1        1.0  0.24423093586733433  0.2442309714279407  0.7557690403176599  1.0000
  I   I2        1.0  0.7557690909378858  0.7557690831726576  0.2442309219531426  1.0000
  I   I3        1.0  0.7557689141642583  0.24423107630264024  0.24423107404786246  1.0000
  I   I4        1.0  0.24423096510205797  0.7557690350181343  0.7557690037258874  1.0000
  I   I5        1.0  0.2442311120449896  0.7557688618072333  0.24423114109339708  1.0000
  I   I6        1.0  0.7557690348559475  0.24423095824776211  0.7557689910527462  1.0000
