data_image0
_chemical_formula_structural       Na2WBr6
_chemical_formula_sum              "Na2 W1 Br6"
_cell_length_a       7.366536146990432
_cell_length_b       7.36653602781191
_cell_length_c       7.366535977018462
_cell_angle_alpha    60.000000971537546
_cell_angle_beta     60.00000094613523
_cell_angle_gamma    59.99999910830593

_space_group_name_H-M_alt    "P 1"
_space_group_IT_number       1

loop_
  _space_group_symop_operation_xyz
  'x, y, z'

loop_
  _atom_site_type_symbol
  _atom_site_label
  _atom_site_symmetry_multiplicity
  _atom_site_fract_x
  _atom_site_fract_y
  _atom_site_fract_z
  _atom_site_occupancy
  Na  Na1       1.0  0.24999999285822225  0.24999995629704028  0.25000000972752384  1.0000
  Na  Na2       1.0  0.7500000086395147  0.7500000185232379  0.7500000153535382  1.0000
  W   W1        1.0  0.9999999078548208  0.9999997356499261  0.9999999298269282  1.0000
  Br  Br1       1.0  0.24490059131509775  0.24490061905904015  0.7550993738547973  1.0000
  Br  Br2       1.0  0.7550995643158677  0.755099575221674  0.24490043863712116  1.0000
  Br  Br3       1.0  0.7550993949320709  0.24490059645347464  0.24490057018280076  1.0000
  Br  Br4       1.0  0.24490044416007806  0.7550995928395078  0.7550995523963071  1.0000
  Br  Br5       1.0  0.24490053728963018  0.7550994375974579  0.2449005412263098  1.0000
  Br  Br6       1.0  0.755099553050047  0.24490045409386596  0.755099585525  1.0000
