data_image0
_chemical_formula_structural       Na2WCl6
_chemical_formula_sum              "Na2 W1 Cl6"
_cell_length_a       6.95359255251188
_cell_length_b       6.9535926617360975
_cell_length_c       6.953592642164633
_cell_angle_alpha    59.99999953327113
_cell_angle_beta     59.99999901631038
_cell_angle_gamma    60.00000209477879

_space_group_name_H-M_alt    "P 1"
_space_group_IT_number       1

loop_
  _space_group_symop_operation_xyz
  'x, y, z'

loop_
  _atom_site_type_symbol
  _atom_site_label
  _atom_site_symmetry_multiplicity
  _atom_site_fract_x
  _atom_site_fract_y
  _atom_site_fract_z
  _atom_site_occupancy
  Na  Na1       1.0  0.25000002005638683  0.24999986552437667  0.25000002618137845  1.0000
  Na  Na2       1.0  0.7499999419424977  0.749999991107093  0.7500000540008204  1.0000
  W   W1        1.0  7.952371892190076e-08  0.9999999806255654  1.5975528696211762e-07  1.0000
  Cl  Cl1       1.0  0.24398464193374972  0.24398458704040624  0.756015459361518  1.0000
  Cl  Cl2       1.0  0.7560153619796299  0.7560154228252386  0.243984665618792  1.0000
  Cl  Cl3       1.0  0.7560153550792884  0.24398463807104742  0.24398466098369645  1.0000
  Cl  Cl4       1.0  0.24398472282352796  0.7560152942968569  0.7560151723772383  1.0000
  Cl  Cl5       1.0  0.24398466101478408  0.7560154285667697  0.24398467028208395  1.0000
  Cl  Cl6       1.0  0.7560152259498332  0.2439847926563553  0.7560151227489726  1.0000
