data_image0
_chemical_formula_structural       Na2WF6
_chemical_formula_sum              "Na2 W1 F6"
_cell_length_a       5.754759691090327
_cell_length_b       5.754759841355719
_cell_length_c       5.754759395474043
_cell_angle_alpha    60.00000176273733
_cell_angle_beta     60.000001847569365
_cell_angle_gamma    60.00000250262487

_space_group_name_H-M_alt    "P 1"
_space_group_IT_number       1

loop_
  _space_group_symop_operation_xyz
  'x, y, z'

loop_
  _atom_site_type_symbol
  _atom_site_label
  _atom_site_symmetry_multiplicity
  _atom_site_fract_x
  _atom_site_fract_y
  _atom_site_fract_z
  _atom_site_occupancy
  Na  Na1       1.0  0.2500000972598665  0.25000001851317394  0.24999994127484254  1.0000
  Na  Na2       1.0  0.749999904786736  0.7500000065902446  0.7500000435332901  1.0000
  W   W1        1.0  0.9999999828733334  2.128229245152309e-08  2.0512184382927275e-08  1.0000
  F   F1        1.0  0.24669504517686772  0.24669514387080851  0.7533049293747347  1.0000
  F   F2        1.0  0.7533049811913323  0.7533048684632341  0.2466950983126664  1.0000
  F   F3        1.0  0.7533048768196013  0.2466950960390649  0.24669510557599916  1.0000
  F   F4        1.0  0.24669512855150139  0.7533048950126854  0.7533048667926437  1.0000
  F   F5        1.0  0.24669509452953803  0.7533049105338683  0.2466951066940505  1.0000
  F   F6        1.0  0.7533048925603913  0.24669505710736  0.7533048639304427  1.0000
