data_image0
_chemical_formula_structural       Na2ZrBr6
_chemical_formula_sum              "Na2 Zr1 Br6"
_cell_length_a       7.522759997891564
_cell_length_b       7.5227598826832285
_cell_length_c       7.522759914672175
_cell_angle_alpha    59.99999958023582
_cell_angle_beta     60.00000002617801
_cell_angle_gamma    60.00000128106749

_space_group_name_H-M_alt    "P 1"
_space_group_IT_number       1

loop_
  _space_group_symop_operation_xyz
  'x, y, z'

loop_
  _atom_site_type_symbol
  _atom_site_label
  _atom_site_symmetry_multiplicity
  _atom_site_fract_x
  _atom_site_fract_y
  _atom_site_fract_z
  _atom_site_occupancy
  Na  Na1       1.0  0.24999995910549808  0.24999997621044226  0.2500000421612792  1.0000
  Na  Na2       1.0  0.7500000263442284  0.7500000018936963  0.7499999714719058  1.0000
  Zr  Zr1       1.0  0.999999936152227  2.1164682381093426e-08  4.1281035912424776e-08  1.0000
  Br  Br1       1.0  0.24830927335328953  0.24830924424976816  0.7516907553676397  1.0000
  Br  Br2       1.0  0.7516907667957139  0.7516907631593182  0.24830920031184034  1.0000
  Br  Br3       1.0  0.7516907196060741  0.24830929209677313  0.24830928427500007  1.0000
  Br  Br4       1.0  0.24830933736613847  0.751690664842683  0.7516907015206843  1.0000
  Br  Br5       1.0  0.24830932819973098  0.7516906836976525  0.24830931099449421  1.0000
  Br  Br6       1.0  0.7516906525201078  0.24830935464443193  0.7516906908362542  1.0000
