data_image0
_chemical_formula_structural       Na2ZrI6
_chemical_formula_sum              "Na2 Zr1 I6"
_cell_length_a       8.178534877450922
_cell_length_b       8.178534731167904
_cell_length_c       8.178534622190112
_cell_angle_alpha    60.000000354189055
_cell_angle_beta     60.00000141385618
_cell_angle_gamma    59.999998393916314

_space_group_name_H-M_alt    "P 1"
_space_group_IT_number       1

loop_
  _space_group_symop_operation_xyz
  'x, y, z'

loop_
  _atom_site_type_symbol
  _atom_site_label
  _atom_site_symmetry_multiplicity
  _atom_site_fract_x
  _atom_site_fract_y
  _atom_site_fract_z
  _atom_site_occupancy
  Na  Na1       1.0  0.25000002021499274  0.249999974381321  0.24999999456596417  1.0000
  Na  Na2       1.0  0.7499999842744192  0.7500000040095786  0.7500000132408999  1.0000
  Zr  Zr1       1.0  1.2449872132896918e-08  1.3477602191324145e-08  0.9999999638047172  1.0000
  I   I1        1.0  0.24831080849288736  0.24831078037147547  0.7516891985169949  1.0000
  I   I2        1.0  0.7516891668317882  0.7516892219796067  0.2483107947741648  1.0000
  I   I3        1.0  0.751689241233417  0.24831078462680842  0.24831073087799638  1.0000
  I   I4        1.0  0.24831075940452949  0.7516892476745006  0.7516892763536541  1.0000
  I   I5        1.0  0.2483107741917635  0.7516892144513617  0.24831074770615905  1.0000
  I   I6        1.0  0.7516892304689368  0.24831075495446958  0.7516892840710019  1.0000
