data_image0
_chemical_formula_structural       Na2ZrF6
_chemical_formula_sum              "Na2 Zr1 F6"
_cell_length_a       5.814150075721599
_cell_length_b       5.814150190272638
_cell_length_c       5.814150084980437
_cell_angle_alpha    59.99999965466958
_cell_angle_beta     59.99999861939208
_cell_angle_gamma    60.00000074242751

_space_group_name_H-M_alt    "P 1"
_space_group_IT_number       1

loop_
  _space_group_symop_operation_xyz
  'x, y, z'

loop_
  _atom_site_type_symbol
  _atom_site_label
  _atom_site_symmetry_multiplicity
  _atom_site_fract_x
  _atom_site_fract_y
  _atom_site_fract_z
  _atom_site_occupancy
  Na  Na1       1.0  0.24999998354301828  0.24999998644845098  0.2500000756404856  1.0000
  Na  Na2       1.0  0.7499999915127952  0.749999967771314  0.7500000268325381  1.0000
  Zr  Zr1       1.0  0.9999999648333714  4.212979705117277e-09  0.9999999759181625  1.0000
  F   F1        1.0  0.24583027258576676  0.2458302078669225  0.7541697546953897  1.0000
  F   F2        1.0  0.7541697199827915  0.7541697653112521  0.24583025042473133  1.0000
  F   F3        1.0  0.7541697613188292  0.24583026248338227  0.24583023369148377  1.0000
  F   F4        1.0  0.24583026332542324  0.7541697991673687  0.7541696870753154  1.0000
  F   F5        1.0  0.24583027889424186  0.7541697430770659  0.24583024811999163  1.0000
  F   F6        1.0  0.7541697686804542  0.24583026169845779  0.7541697308978036  1.0000
