data_image0
_chemical_formula_structural       Na2ZrCl6
_chemical_formula_sum              "Na2 Zr1 Cl6"
_cell_length_a       7.042689169524713
_cell_length_b       7.042689277665182
_cell_length_c       7.042689261779893
_cell_angle_alpha    59.999999002172245
_cell_angle_beta     60.00000182619674
_cell_angle_gamma    59.999999688698715

_space_group_name_H-M_alt    "P 1"
_space_group_IT_number       1

loop_
  _space_group_symop_operation_xyz
  'x, y, z'

loop_
  _atom_site_type_symbol
  _atom_site_label
  _atom_site_symmetry_multiplicity
  _atom_site_fract_x
  _atom_site_fract_y
  _atom_site_fract_z
  _atom_site_occupancy
  Na  Na1       1.0  0.24999999750839386  0.2500000529257023  0.24999993004232635  1.0000
  Na  Na2       1.0  0.7500000042693709  0.7500000300888737  0.7500000118888988  1.0000
  Zr  Zr1       1.0  0.9999999071240021  0.9999999982609675  1.8077925506742597e-07  1.0000
  Cl  Cl1       1.0  0.24820396056048682  0.24820401400034733  0.7517960402519994  1.0000
  Cl  Cl2       1.0  0.7517960440162066  0.7517960655361672  0.2482039673347508  1.0000
  Cl  Cl3       1.0  0.7517961038695858  0.24820387623358353  0.24820388781112948  1.0000
  Cl  Cl4       1.0  0.24820400027790973  0.7517959685338679  0.7517959275308326  1.0000
  Cl  Cl5       1.0  0.24820386708673234  0.7517961615541843  0.24820392043684  1.0000
  Cl  Cl6       1.0  0.751796123265214  0.2482038327698539  0.7517961283490495  1.0000
