data_image0
_chemical_formula_structural       Nb2AuCl6
_chemical_formula_sum              "Nb2 Au1 Cl6"
_cell_length_a       6.64209569242952
_cell_length_b       6.642095729891362
_cell_length_c       6.642095479069285
_cell_angle_alpha    59.999999554503326
_cell_angle_beta     59.99999954390212
_cell_angle_gamma    59.999999770234204

_space_group_name_H-M_alt    "P 1"
_space_group_IT_number       1

loop_
  _space_group_symop_operation_xyz
  'x, y, z'

loop_
  _atom_site_type_symbol
  _atom_site_label
  _atom_site_symmetry_multiplicity
  _atom_site_fract_x
  _atom_site_fract_y
  _atom_site_fract_z
  _atom_site_occupancy
  Nb  Nb1       1.0  0.2500002104809696  0.25000031068441125  0.2499994834949782  1.0000
  Nb  Nb2       1.0  0.7499999202904911  0.7499999049935004  0.7500005722077737  1.0000
  Au  Au1       1.0  1.1150841436632058e-08  0.9999999926243461  3.8762228316058056e-08  1.0000
  Cl  Cl1       1.0  0.26029643585215445  0.26029644853340983  0.7397036901365394  1.0000
  Cl  Cl2       1.0  0.739703504008382  0.7397035680018683  0.26029622786667417  1.0000
  Cl  Cl3       1.0  0.7397035450118874  0.26029656042169047  0.2602963593686981  1.0000
  Cl  Cl4       1.0  0.2602963716009727  0.739703338103135  0.739703654857914  1.0000
  Cl  Cl5       1.0  0.26029656717137245  0.739703388815825  0.26029637925456656  1.0000
  Cl  Cl6       1.0  0.7397034356623958  0.2602964857381275  0.7397035902970868  1.0000
