data_image0
_chemical_formula_structural       Nb2AuBr6
_chemical_formula_sum              "Nb2 Au1 Br6"
_cell_length_a       6.831464079356898
_cell_length_b       6.831464018373436
_cell_length_c       6.83146383155957
_cell_angle_alpha    60.000000672020235
_cell_angle_beta     60.00000041206213
_cell_angle_gamma    60.000000627504235

_space_group_name_H-M_alt    "P 1"
_space_group_IT_number       1

loop_
  _space_group_symop_operation_xyz
  'x, y, z'

loop_
  _atom_site_type_symbol
  _atom_site_label
  _atom_site_symmetry_multiplicity
  _atom_site_fract_x
  _atom_site_fract_y
  _atom_site_fract_z
  _atom_site_occupancy
  Nb  Nb1       1.0  0.24999985872932107  0.25000002385804315  0.25000007935335344  1.0000
  Nb  Nb2       1.0  0.7500001142732056  0.7500001002589316  0.7499998112211539  1.0000
  Au  Au1       1.0  0.9999999958343917  0.9999999820720001  1.1046804154052443e-08  1.0000
  Br  Br1       1.0  0.26065198238903164  0.260651964934093  0.7393480650868691  1.0000
  Br  Br2       1.0  0.7393480343408252  0.7393480229300827  0.2606520064213628  1.0000
  Br  Br3       1.0  0.7393480684441618  0.2606519005293863  0.26065201703466084  1.0000
  Br  Br4       1.0  0.26065196730636325  0.7393480353435897  0.7393480021595268  1.0000
  Br  Br5       1.0  0.2606519627096028  0.739348035180622  0.2606519650620888  1.0000
  Br  Br6       1.0  0.7393480092882138  0.2606519347555536  0.7393480440919964  1.0000
