data_image0
_chemical_formula_structural       Nb2AuF6
_chemical_formula_sum              "Nb2 Au1 F6"
_cell_length_a       5.5759660115674405
_cell_length_b       5.575965183123801
_cell_length_c       5.575965552884247
_cell_angle_alpha    60.00000179414725
_cell_angle_beta     60.00000516164704
_cell_angle_gamma    59.99999915052056

_space_group_name_H-M_alt    "P 1"
_space_group_IT_number       1

loop_
  _space_group_symop_operation_xyz
  'x, y, z'

loop_
  _atom_site_type_symbol
  _atom_site_label
  _atom_site_symmetry_multiplicity
  _atom_site_fract_x
  _atom_site_fract_y
  _atom_site_fract_z
  _atom_site_occupancy
  Nb  Nb1       1.0  0.25000001724434817  0.24999944191376464  0.25000092345223934  1.0000
  Nb  Nb2       1.0  0.7500011830029126  0.7499996348382766  0.7500002266357647  1.0000
  Au  Au1       1.0  0.9999997874878443  5.3813552044955e-07  0.9999997026824774  1.0000
  F   F1        1.0  0.27368255537195946  0.27368301078628715  0.7263168692238576  1.0000
  F   F2        1.0  0.7263175121611883  0.7263172586497337  0.2736824933360892  1.0000
  F   F3        1.0  0.7263170666443401  0.2736825362236791  0.2736829158948796  1.0000
  F   F4        1.0  0.2736821734270241  0.7263176870864476  0.7263170645934374  1.0000
  F   F5        1.0  0.2736825911446528  0.7263174753127014  0.27368246521674605  1.0000
  F   F6        1.0  0.726317077033523  0.27368245147376297  0.7263173095939086  1.0000
