data_image0
_chemical_formula_structural       Nb2BeF6
_chemical_formula_sum              "Nb2 Be1 F6"
_cell_length_a       5.381639087621574
_cell_length_b       5.381639174213724
_cell_length_c       5.38163945220763
_cell_angle_alpha    59.99999790418789
_cell_angle_beta     59.99999776192293
_cell_angle_gamma    59.999998951315725

_space_group_name_H-M_alt    "P 1"
_space_group_IT_number       1

loop_
  _space_group_symop_operation_xyz
  'x, y, z'

loop_
  _atom_site_type_symbol
  _atom_site_label
  _atom_site_symmetry_multiplicity
  _atom_site_fract_x
  _atom_site_fract_y
  _atom_site_fract_z
  _atom_site_occupancy
  Nb  Nb1       1.0  0.2500000448368333  0.24999948467750668  0.2500004656541701  1.0000
  Nb  Nb2       1.0  0.7500000763060475  0.7500004567225439  0.7499996257066971  1.0000
  Be  Be1       1.0  0.9999999343295612  6.827352347665834e-08  0.9999999689677403  1.0000
  F   F1        1.0  0.23174005203933987  0.23173995391879096  0.7682599197530656  1.0000
  F   F2        1.0  0.7682599061211627  0.7682600580305677  0.23174004501454346  1.0000
  F   F3        1.0  0.7682599900098277  0.23173985788542908  0.23174009903529924  1.0000
  F   F4        1.0  0.23173999517744484  0.7682601244787363  0.7682598502879933  1.0000
  F   F5        1.0  0.23173994805969678  0.7682601177356432  0.23174007397972557  1.0000
  F   F6        1.0  0.7682600695500019  0.231739889662147  0.7682599488148811  1.0000
