data_image0
_chemical_formula_structural       Nb2BeBr6
_chemical_formula_sum              "Nb2 Be1 Br6"
_cell_length_a       6.511142303125151
_cell_length_b       6.511142073885711
_cell_length_c       6.511142442239459
_cell_angle_alpha    59.999998815694404
_cell_angle_beta     60.00000058923178
_cell_angle_gamma    59.99999818290543

_space_group_name_H-M_alt    "P 1"
_space_group_IT_number       1

loop_
  _space_group_symop_operation_xyz
  'x, y, z'

loop_
  _atom_site_type_symbol
  _atom_site_label
  _atom_site_symmetry_multiplicity
  _atom_site_fract_x
  _atom_site_fract_y
  _atom_site_fract_z
  _atom_site_occupancy
  Nb  Nb1       1.0  0.25000005976996853  0.24999996136613428  0.24999999607846865  1.0000
  Nb  Nb2       1.0  0.7499999905556427  0.7499999555763502  0.7499999885120683  1.0000
  Be  Be1       1.0  0.9999999966313918  5.2667960206481975e-08  0.9999999830294681  1.0000
  Br  Br1       1.0  0.2450984043553433  0.24509835330642088  0.7549016214268891  1.0000
  Br  Br2       1.0  0.7549015867649568  0.7549016614479903  0.2450983684336007  1.0000
  Br  Br3       1.0  0.754901609364237  0.24509837838381954  0.24509835706316055  1.0000
  Br  Br4       1.0  0.24509836183656974  0.7549016269655987  0.7549016029205374  1.0000
  Br  Br5       1.0  0.2450983739055077  0.7549016612302323  0.24509840167148633  1.0000
  Br  Br6       1.0  0.7549016200270625  0.24509836104817329  0.7549016674914546  1.0000
