data_image0
_chemical_formula_structural       Nb2BeI6
_chemical_formula_sum              "Nb2 Be1 I6"
_cell_length_a       7.292251333891534
_cell_length_b       7.2922511978198346
_cell_length_c       7.29225119109214
_cell_angle_alpha    60.00000064297026
_cell_angle_beta     60.00000068121196
_cell_angle_gamma    60.00000076230692

_space_group_name_H-M_alt    "P 1"
_space_group_IT_number       1

loop_
  _space_group_symop_operation_xyz
  'x, y, z'

loop_
  _atom_site_type_symbol
  _atom_site_label
  _atom_site_symmetry_multiplicity
  _atom_site_fract_x
  _atom_site_fract_y
  _atom_site_fract_z
  _atom_site_occupancy
  Nb  Nb1       1.0  0.24999996665655966  0.2500000199484448  0.2499999413339783  1.0000
  Nb  Nb2       1.0  0.7500000248409636  0.7499999607539239  0.7499999811555089  1.0000
  Be  Be1       1.0  1.2955857919766743e-08  0.9999999848843609  0.9999999997085719  1.0000
  I   I1        1.0  0.2472530874039475  0.24725309854228755  0.7527469409956725  1.0000
  I   I2        1.0  0.7527469103148918  0.7527469157503917  0.2472531138043709  1.0000
  I   I3        1.0  0.7527469427020831  0.24725307862977988  0.24725307990079323  1.0000
  I   I4        1.0  0.2472530962197368  0.7527468785593735  0.7527469279967768  1.0000
  I   I5        1.0  0.2472530802107555  0.7527469355761988  0.247253079399979  1.0000
  I   I6        1.0  0.7527468806877577  0.24725312742242822  0.7527469310603319  1.0000
