data_image0
_chemical_formula_structural       Nb2BeCl6
_chemical_formula_sum              "Nb2 Be1 Cl6"
_cell_length_a       6.327869385023912
_cell_length_b       6.327869201045363
_cell_length_c       6.3278692221751465
_cell_angle_alpha    60.00000084002928
_cell_angle_beta     59.99999921566394
_cell_angle_gamma    59.999999352541145

_space_group_name_H-M_alt    "P 1"
_space_group_IT_number       1

loop_
  _space_group_symop_operation_xyz
  'x, y, z'

loop_
  _atom_site_type_symbol
  _atom_site_label
  _atom_site_symmetry_multiplicity
  _atom_site_fract_x
  _atom_site_fract_y
  _atom_site_fract_z
  _atom_site_occupancy
  Nb  Nb1       1.0  0.24999986960486054  0.24999995135512051  0.25000008489299425  1.0000
  Nb  Nb2       1.0  0.7500000970443109  0.7499999605166295  0.7500003255508925  1.0000
  Be  Be1       1.0  8.017987532699302e-08  5.806434560133425e-09  9.765450428322185e-08  1.0000
  Cl  Cl1       1.0  0.24259617968380673  0.2425962357404005  0.757403822294185  1.0000
  Cl  Cl2       1.0  0.757403770652995  0.7574036703249096  0.24259615830239664  1.0000
  Cl  Cl3       1.0  0.7574038266701556  0.2425962325864771  0.2425961045197907  1.0000
  Cl  Cl4       1.0  0.242596267122583  0.7574037741236618  0.7574036339227873  1.0000
  Cl  Cl5       1.0  0.24259620019684533  0.7574038853943628  0.24259606980805795  1.0000
  Cl  Cl6       1.0  0.7574037196118248  0.2425962819604125  0.7574037069104552  1.0000
