data_image0
_chemical_formula_structural       Nb2CoCl6
_chemical_formula_sum              "Nb2 Co1 Cl6"
_cell_length_a       6.378895035647176
_cell_length_b       6.378895158607266
_cell_length_c       6.378895015891103
_cell_angle_alpha    60.00000061288081
_cell_angle_beta     60.000000448596175
_cell_angle_gamma    59.99999952598868

_space_group_name_H-M_alt    "P 1"
_space_group_IT_number       1

loop_
  _space_group_symop_operation_xyz
  'x, y, z'

loop_
  _atom_site_type_symbol
  _atom_site_label
  _atom_site_symmetry_multiplicity
  _atom_site_fract_x
  _atom_site_fract_y
  _atom_site_fract_z
  _atom_site_occupancy
  Nb  Nb1       1.0  0.25000022918011766  0.2499994927491163  0.2500001946395265  1.0000
  Nb  Nb2       1.0  0.7499998471976332  0.7500003041628819  0.7499997572185374  1.0000
  Co  Co1       1.0  0.9999999923388583  0.9999999904000239  0.9999999521944523  1.0000
  Cl  Cl1       1.0  0.25267717957555275  0.2526770457301517  0.7473228743003256  1.0000
  Cl  Cl2       1.0  0.7473227372262039  0.7473230507011133  0.252677178462091  1.0000
  Cl  Cl3       1.0  0.74732292151392  0.25267701678703786  0.25267715109685945  1.0000
  Cl  Cl4       1.0  0.2526770644421164  0.7473229970844288  0.747322898962299  1.0000
  Cl  Cl5       1.0  0.25267706204373425  0.74732300996476  0.2526770934472123  1.0000
  Cl  Cl6       1.0  0.7473229462180484  0.2526770999064708  0.7473229084328783  1.0000
