data_image0
_chemical_formula_structural       Nb2CoSe6
_chemical_formula_sum              "Nb2 Co1 Se6"
_cell_length_a       6.269833335154537
_cell_length_b       6.269833314774686
_cell_length_c       6.269833516239949
_cell_angle_alpha    59.999996741528776
_cell_angle_beta     59.999998671388276
_cell_angle_gamma    59.99999821860726

_space_group_name_H-M_alt    "P 1"
_space_group_IT_number       1

loop_
  _space_group_symop_operation_xyz
  'x, y, z'

loop_
  _atom_site_type_symbol
  _atom_site_label
  _atom_site_symmetry_multiplicity
  _atom_site_fract_x
  _atom_site_fract_y
  _atom_site_fract_z
  _atom_site_occupancy
  Nb  Nb1       1.0  0.2500000916246024  0.25000005872303527  0.2499998293612178  1.0000
  Nb  Nb2       1.0  0.7499998276782457  0.7500003519744822  0.7499997130953104  1.0000
  Co  Co1       1.0  0.9999999638175985  0.9999999980466064  3.501728447119188e-08  1.0000
  Se  Se1       1.0  0.2620127740647684  0.26201275432814664  0.7379873254181134  1.0000
  Se  Se2       1.0  0.7379872297958572  0.7379871816948357  0.2620129017429765  1.0000
  Se  Se3       1.0  0.7379871672346382  0.26201261407524423  0.26201294705698036  1.0000
  Se  Se4       1.0  0.26201289571298114  0.7379870562862783  0.7379873084292288  1.0000
  Se  Se5       1.0  0.26201276074612095  0.7379872510805964  0.2620127917495885  1.0000
  Se  Se6       1.0  0.7379872848027674  0.2620127201034676  0.7379871577460262  1.0000
