data_image0
_chemical_formula_structural       Nb2CuCl6
_chemical_formula_sum              "Nb2 Cu1 Cl6"
_cell_length_a       6.409129423215228
_cell_length_b       6.409129323038458
_cell_length_c       6.409129447172755
_cell_angle_alpha    59.999998776023794
_cell_angle_beta     59.99999974776622
_cell_angle_gamma    59.99999789861519

_space_group_name_H-M_alt    "P 1"
_space_group_IT_number       1

loop_
  _space_group_symop_operation_xyz
  'x, y, z'

loop_
  _atom_site_type_symbol
  _atom_site_label
  _atom_site_symmetry_multiplicity
  _atom_site_fract_x
  _atom_site_fract_y
  _atom_site_fract_z
  _atom_site_occupancy
  Nb  Nb1       1.0  0.25000008844892757  0.250000051167855  0.2499998377911617  1.0000
  Nb  Nb2       1.0  0.7499998738391557  0.750000371350503  0.7500000167970687  1.0000
  Cu  Cu1       1.0  0.9999999885531231  1.9109379638457277e-09  4.0654278530487296e-08  1.0000
  Cl  Cl1       1.0  0.25598590563614226  0.25598570978862223  0.7440142209967912  1.0000
  Cl  Cl2       1.0  0.7440142263445333  0.744014127982697  0.2559857646652239  1.0000
  Cl  Cl3       1.0  0.7440141897168887  0.2559857352814158  0.2559858259095144  1.0000
  Cl  Cl4       1.0  0.25598579631141793  0.7440141349758517  0.7440142336487284  1.0000
  Cl  Cl5       1.0  0.25598580799349135  0.7440141991156712  0.2559858346660958  1.0000
  Cl  Cl6       1.0  0.7440141228206567  0.2559856692306593  0.7440142316108544  1.0000
