data_image0
_chemical_formula_structural       Nb2CI6
_chemical_formula_sum              "Nb2 C1 I6"
_cell_length_a       7.352145115123473
_cell_length_b       7.352145076839941
_cell_length_c       7.352145086470246
_cell_angle_alpha    59.999999471608845
_cell_angle_beta     59.99999945617816
_cell_angle_gamma    59.999999660234174

_space_group_name_H-M_alt    "P 1"
_space_group_IT_number       1

loop_
  _space_group_symop_operation_xyz
  'x, y, z'

loop_
  _atom_site_type_symbol
  _atom_site_label
  _atom_site_symmetry_multiplicity
  _atom_site_fract_x
  _atom_site_fract_y
  _atom_site_fract_z
  _atom_site_occupancy
  Nb  Nb1       1.0  0.25000009654627264  0.24999993699493353  0.24999989491257082  1.0000
  Nb  Nb2       1.0  0.7499998351852863  0.7500001424856441  0.7500001433770578  1.0000
  C   C1        1.0  0.9999999945424927  1.1660833755635391e-08  0.9999999941780423  1.0000
  I   I1        1.0  0.25461920308154823  0.2546191349334877  0.7453808714092035  1.0000
  I   I2        1.0  0.7453808134468597  0.745380807948752  0.25461913565498473  1.0000
  I   I3        1.0  0.7453808337596525  0.25461912955863025  0.2546191941083403  1.0000
  I   I4        1.0  0.25461920198024546  0.7453808216527764  0.7453807774231632  1.0000
  I   I5        1.0  0.25461925876151353  0.7453808497571206  0.25461910044190283  1.0000
  I   I6        1.0  0.7453807691881492  0.2546191530951211  0.7453808940491601  1.0000
