data_image0
_chemical_formula_structural       Nb2CoF6
_chemical_formula_sum              "Nb2 Co1 F6"
_cell_length_a       5.4237998411294255
_cell_length_b       5.423800128776935
_cell_length_c       5.4237996502554
_cell_angle_alpha    59.999998555781346
_cell_angle_beta     59.999997622039295
_cell_angle_gamma    59.99999953853118

_space_group_name_H-M_alt    "P 1"
_space_group_IT_number       1

loop_
  _space_group_symop_operation_xyz
  'x, y, z'

loop_
  _atom_site_type_symbol
  _atom_site_label
  _atom_site_symmetry_multiplicity
  _atom_site_fract_x
  _atom_site_fract_y
  _atom_site_fract_z
  _atom_site_occupancy
  Nb  Nb1       1.0  0.25000028746044717  0.24999968173510817  0.24999955887115913  1.0000
  Nb  Nb2       1.0  0.7500002142090034  0.7500005107080434  0.7500005633870261  1.0000
  Co  Co1       1.0  5.763298074835366e-09  0.9999999954838121  1.2282526319744157e-08  1.0000
  F   F1        1.0  0.2476890165599651  0.24768897450407482  0.7523110965598926  1.0000
  F   F2        1.0  0.7523108769637722  0.7523110305173296  0.247688676773048  1.0000
  F   F3        1.0  0.752310966332554  0.24768900718477369  0.24768906482447658  1.0000
  F   F4        1.0  0.24768881616475505  0.7523109029966906  0.7523109681583574  1.0000
  F   F5        1.0  0.2476890557732457  0.7523111515250391  0.24768897799148026  1.0000
  F   F6        1.0  0.7523107968724683  0.24768872704311068  0.7523111113165701  1.0000
