data_image0
_chemical_formula_structural       Nb2CO6
_chemical_formula_sum              "Nb2 C1 O6"
_cell_length_a       4.833570920437426
_cell_length_b       4.833570933534916
_cell_length_c       4.833570939329189
_cell_angle_alpha    60.000000514837105
_cell_angle_beta     59.999999836862045
_cell_angle_gamma    60.000000375287264

_space_group_name_H-M_alt    "P 1"
_space_group_IT_number       1

loop_
  _space_group_symop_operation_xyz
  'x, y, z'

loop_
  _atom_site_type_symbol
  _atom_site_label
  _atom_site_symmetry_multiplicity
  _atom_site_fract_x
  _atom_site_fract_y
  _atom_site_fract_z
  _atom_site_occupancy
  Nb  Nb1       1.0  0.2500000682136597  0.2499999219282902  0.24999997288028578  1.0000
  Nb  Nb2       1.0  0.7500000670689827  0.7500000064987523  0.7499999477556045  1.0000
  C   C1        1.0  3.366016277502156e-07  0.999999678203549  5.880105219920553e-08  1.0000
  O   O1        1.0  0.23212093181329974  0.23212110428760582  0.7678789850705349  1.0000
  O   O2        1.0  0.7678788408588408  0.7678789229588194  0.2321211253891024  1.0000
  O   O3        1.0  0.7678789136122844  0.2321210753061709  0.2321211470675344  1.0000
  O   O4        1.0  0.23212099418894408  0.7678790482258072  0.7678788890620588  1.0000
  O   O5        1.0  0.23212100944071692  0.7678790245189445  0.23212107106978694  1.0000
  O   O6        1.0  0.7678788486982908  0.23212119783241544  0.7678787956607593  1.0000
