data_image0
_chemical_formula_structural       Nb2CoBr6
_chemical_formula_sum              "Nb2 Co1 Br6"
_cell_length_a       6.559790398378164
_cell_length_b       6.559790594548315
_cell_length_c       6.5597904696509595
_cell_angle_alpha    60.0000002486105
_cell_angle_beta     59.999999209938075
_cell_angle_gamma    59.999999745540634

_space_group_name_H-M_alt    "P 1"
_space_group_IT_number       1

loop_
  _space_group_symop_operation_xyz
  'x, y, z'

loop_
  _atom_site_type_symbol
  _atom_site_label
  _atom_site_symmetry_multiplicity
  _atom_site_fract_x
  _atom_site_fract_y
  _atom_site_fract_z
  _atom_site_occupancy
  Nb  Nb1       1.0  0.24999998188316241  0.2499999677288936  0.25000008695086656  1.0000
  Nb  Nb2       1.0  0.7500000066884239  0.7499999946720682  0.7499999803156199  1.0000
  Co  Co1       1.0  3.2734331789646594e-08  0.9999999757283664  0.9999999515599217  1.0000
  Br  Br1       1.0  0.2542043699132474  0.25420438083494906  0.7457956154971933  1.0000
  Br  Br2       1.0  0.7457955874340814  0.7457956805195957  0.2542043538781948  1.0000
  Br  Br3       1.0  0.7457956446079136  0.25420438669903617  0.2542043194030556  1.0000
  Br  Br4       1.0  0.25420436204530905  0.7457956429156799  0.745795665580323  1.0000
  Br  Br5       1.0  0.25420435755020493  0.7457955994310157  0.2542043872383228  1.0000
  Br  Br6       1.0  0.7457956631150435  0.2542043723051896  0.745795633398249  1.0000
