data_image0
_chemical_formula_structural       Nb2CoI6
_chemical_formula_sum              "Nb2 Co1 I6"
_cell_length_a       7.311141104191277
_cell_length_b       7.311141063876895
_cell_length_c       7.311141042933029
_cell_angle_alpha    60.00000054789854
_cell_angle_beta     60.00000002151037
_cell_angle_gamma    59.99999971751062

_space_group_name_H-M_alt    "P 1"
_space_group_IT_number       1

loop_
  _space_group_symop_operation_xyz
  'x, y, z'

loop_
  _atom_site_type_symbol
  _atom_site_label
  _atom_site_symmetry_multiplicity
  _atom_site_fract_x
  _atom_site_fract_y
  _atom_site_fract_z
  _atom_site_occupancy
  Nb  Nb1       1.0  0.2499999993883747  0.24999995048077414  0.25000002934127974  1.0000
  Nb  Nb2       1.0  0.7500000097927312  0.7499999871315849  0.7499999268277693  1.0000
  Co  Co1       1.0  0.9999999965702805  0.9999999865985914  8.415564042472676e-09  1.0000
  I   I1        1.0  0.2486139836739402  0.2486139982804  0.7513860076249272  1.0000
  I   I2        1.0  0.7513860407096093  0.7513859979631224  0.24861402378491396  1.0000
  I   I3        1.0  0.7513860376928407  0.24861397397202578  0.24861398799839715  1.0000
  I   I4        1.0  0.24861396150013756  0.7513860457239618  0.7513860319705175  1.0000
  I   I5        1.0  0.248613965413966  0.7513860141775843  0.24861397390164106  1.0000
  I   I6        1.0  0.7513860105345944  0.24861403734674897  0.7513860089486962  1.0000
