data_image0
_chemical_formula_structural       Nb2CrBr6
_chemical_formula_sum              "Nb2 Cr1 Br6"
_cell_length_a       6.65384810063016
_cell_length_b       6.6538478144576665
_cell_length_c       6.653847920912177
_cell_angle_alpha    60.00000012247323
_cell_angle_beta     59.99999950691576
_cell_angle_gamma    59.99999880938978

_space_group_name_H-M_alt    "P 1"
_space_group_IT_number       1

loop_
  _space_group_symop_operation_xyz
  'x, y, z'

loop_
  _atom_site_type_symbol
  _atom_site_label
  _atom_site_symmetry_multiplicity
  _atom_site_fract_x
  _atom_site_fract_y
  _atom_site_fract_z
  _atom_site_occupancy
  Nb  Nb1       1.0  0.24999998477578214  0.25000008035203475  0.24999993141269128  1.0000
  Nb  Nb2       1.0  0.750000000891268  0.7499998618808501  0.7500001258616132  1.0000
  Cr  Cr1       1.0  0.9999999779301821  3.497247544135218e-08  1.458912843722803e-08  1.0000
  Br  Br1       1.0  0.25488939538050776  0.25488937670312095  0.7451105988795431  1.0000
  Br  Br2       1.0  0.7451106333373643  0.7451106133868342  0.25488936484834224  1.0000
  Br  Br3       1.0  0.7451106247452463  0.2548893986708995  0.2548893855404207  1.0000
  Br  Br4       1.0  0.2548893625157984  0.7451106116662789  0.745110648907858  1.0000
  Br  Br5       1.0  0.2548894018413978  0.7451106183606377  0.2548893481093667  1.0000
  Br  Br6       1.0  0.7451106257365773  0.2548894011798225  0.7451105834285374  1.0000
