data_image0
_chemical_formula_structural       Nb2CS6
_chemical_formula_sum              "Nb2 C1 S6"
_cell_length_a       7.806858203226409
_cell_length_b       7.910216376914735
_cell_length_c       8.065470198653905
_cell_angle_alpha    52.06571716279074
_cell_angle_beta     49.397758675715224
_cell_angle_gamma    45.31713102308576

_space_group_name_H-M_alt    "P 1"
_space_group_IT_number       1

loop_
  _space_group_symop_operation_xyz
  'x, y, z'

loop_
  _atom_site_type_symbol
  _atom_site_label
  _atom_site_symmetry_multiplicity
  _atom_site_fract_x
  _atom_site_fract_y
  _atom_site_fract_z
  _atom_site_occupancy
  Nb  Nb1       1.0  0.20383614547283535  0.19121856478048854  0.2123814319857097  1.0000
  Nb  Nb2       1.0  0.9431573278483376  0.9530225558013826  0.709971053214356  1.0000
  C   C1        1.0  0.9928499617221064  0.9990217862061248  0.3851948092185742  1.0000
  S   S1        1.0  0.245389878943852  0.8837611384959534  0.1647135512877711  1.0000
  S   S2        1.0  0.03282280115049052  0.5356206423716987  0.9263386158270028  1.0000
  S   S3        1.0  0.6339647307223804  0.1355487149295856  0.021688887565746866  1.0000
  S   S4        1.0  0.38019316624650673  0.8547245885749021  0.5233375344990865  1.0000
  S   S5        1.0  0.6837909268564659  0.06316242296213703  0.5518012290535541  1.0000
  S   S6        1.0  0.8839961745647898  0.38391798131796345  0.5045723108693164  1.0000
