data_image0
_chemical_formula_structural       Nb2CF6
_chemical_formula_sum              "Nb2 C1 F6"
_cell_length_a       4.020317869733254
_cell_length_b       5.741473750175811
_cell_length_c       4.510290506292001
_cell_angle_alpha    63.295687177439824
_cell_angle_beta     57.04711418402735
_cell_angle_gamma    38.89896151079214

_space_group_name_H-M_alt    "P 1"
_space_group_IT_number       1

loop_
  _space_group_symop_operation_xyz
  'x, y, z'

loop_
  _atom_site_type_symbol
  _atom_site_label
  _atom_site_symmetry_multiplicity
  _atom_site_fract_x
  _atom_site_fract_y
  _atom_site_fract_z
  _atom_site_occupancy
  Nb  Nb1       1.0  0.9924924052719684  0.1174157751236139  0.6525358091305007  1.0000
  Nb  Nb2       1.0  0.6557821071380077  0.6375082110387207  0.6116237184312758  1.0000
  C   C1        1.0  0.662558886226918  0.5714169830823079  0.5620682556728798  1.0000
  F   F1        1.0  0.6645234971068612  0.6314866913644824  0.6104526723838848  1.0000
  F   F2        1.0  0.930814494838748  0.03525556793158506  0.9004158640439199  1.0000
  F   F3        1.0  0.6140679188727212  0.9715987088832895  0.8684132573744303  1.0000
  F   F4        1.0  0.8443236114872643  0.6275118128832529  0.3053344780804082  1.0000
  F   F5        1.0  0.9994315386593293  0.8623430283019861  0.510362891695678  1.0000
  F   F6        1.0  0.24204768299787194  0.9081475609244755  0.381882694864029  1.0000
