data_image0
_chemical_formula_structural       Nb2CoTe6
_chemical_formula_sum              "Nb2 Co1 Te6"
_cell_length_a       6.77820560811699
_cell_length_b       6.778205752076845
_cell_length_c       6.778205744244358
_cell_angle_alpha    59.999999262662236
_cell_angle_beta     60.00000012060763
_cell_angle_gamma    59.999999529753474

_space_group_name_H-M_alt    "P 1"
_space_group_IT_number       1

loop_
  _space_group_symop_operation_xyz
  'x, y, z'

loop_
  _atom_site_type_symbol
  _atom_site_label
  _atom_site_symmetry_multiplicity
  _atom_site_fract_x
  _atom_site_fract_y
  _atom_site_fract_z
  _atom_site_occupancy
  Nb  Nb1       1.0  0.2500000070016965  0.2499999828834798  0.24999997968167784  1.0000
  Nb  Nb2       1.0  0.7499999625322765  0.75000003718788  0.749999969747536  1.0000
  Co  Co1       1.0  0.9999999863716078  2.638865706629766e-16  0.9999999905857124  1.0000
  Te  Te1       1.0  0.2513974237328328  0.25139738691708297  0.7486026058692357  1.0000
  Te  Te2       1.0  0.7486025927092722  0.7486026150854104  0.25139739405427947  1.0000
  Te  Te3       1.0  0.7486026056018595  0.25139739078812323  0.25139740434599134  1.0000
  Te  Te4       1.0  0.25139740292479623  0.7486026094074832  0.7486026255190754  1.0000
  Te  Te5       1.0  0.25139741258194204  0.7486026044123556  0.25139738227873953  1.0000
  Te  Te6       1.0  0.7486026065793581  0.25139737410061236  0.7486026472090578  1.0000
