data_image0
_chemical_formula_structural       Nb2CrF6
_chemical_formula_sum              "Nb2 Cr1 F6"
_cell_length_a       5.6995652965622305
_cell_length_b       5.699566226555327
_cell_length_c       5.699565255882482
_cell_angle_alpha    59.999989856309554
_cell_angle_beta     60.000006169742804
_cell_angle_gamma    59.9999884618695

_space_group_name_H-M_alt    "P 1"
_space_group_IT_number       1

loop_
  _space_group_symop_operation_xyz
  'x, y, z'

loop_
  _atom_site_type_symbol
  _atom_site_label
  _atom_site_symmetry_multiplicity
  _atom_site_fract_x
  _atom_site_fract_y
  _atom_site_fract_z
  _atom_site_occupancy
  Nb  Nb1       1.0  0.25000625949233857  0.24998091120148566  0.25002120456532645  1.0000
  Nb  Nb2       1.0  0.7499970257173465  0.750007250359602  0.7499965966299988  1.0000
  Cr  Cr1       1.0  0.9999994732671008  1.6288204867788175e-06  0.9999973084418522  1.0000
  F   F1        1.0  0.23929784527070677  0.23929485657028637  0.7606986263550215  1.0000
  F   F2        1.0  0.7607000575293728  0.7607078719749416  0.23929648994304867  1.0000
  F   F3        1.0  0.7607009675060008  0.2392956653517891  0.2392966881245922  1.0000
  F   F4        1.0  0.2392962986112824  0.7607108816805763  0.7606964232041545  1.0000
  F   F5        1.0  0.23929566158224377  0.760706499851781  0.23929557350316544  1.0000
  F   F6        1.0  0.7607065597647941  0.23929446234671664  0.7607009370743059  1.0000
