data_image0
_chemical_formula_structural       Nb2CoS6
_chemical_formula_sum              "Nb2 Co1 S6"
_cell_length_a       5.842461131056399
_cell_length_b       5.842461110284437
_cell_length_c       5.8424612175479105
_cell_angle_alpha    59.99999967351915
_cell_angle_beta     59.999999664727476
_cell_angle_gamma    59.99999937851891

_space_group_name_H-M_alt    "P 1"
_space_group_IT_number       1

loop_
  _space_group_symop_operation_xyz
  'x, y, z'

loop_
  _atom_site_type_symbol
  _atom_site_label
  _atom_site_symmetry_multiplicity
  _atom_site_fract_x
  _atom_site_fract_y
  _atom_site_fract_z
  _atom_site_occupancy
  Nb  Nb1       1.0  0.24999968557380628  0.24999986528404314  0.2500001588506389  1.0000
  Nb  Nb2       1.0  0.7500002641506671  0.7500000528417027  0.7499999250461262  1.0000
  Co  Co1       1.0  0.9999999518472121  3.773308458093099e-08  1.7191103653574773e-08  1.0000
  S   S1        1.0  0.26147886705901163  0.2614789709607151  0.7385211233485807  1.0000
  S   S2        1.0  0.7385211045838638  0.7385210414977416  0.2614789092690578  1.0000
  S   S3        1.0  0.7385211876928195  0.2614788406094004  0.2614789520962174  1.0000
  S   S4        1.0  0.2614789368722982  0.7385210984791694  0.7385209774157685  1.0000
  S   S5        1.0  0.2614788550110844  0.7385211580310117  0.26147898756770727  1.0000
  S   S6        1.0  0.7385211504291271  0.2614789131233538  0.738520959436338  1.0000
