data_image0
_chemical_formula_structural       Nb2CrS6
_chemical_formula_sum              "Nb2 Cr1 S6"
_cell_length_a       5.944004597674475
_cell_length_b       5.944004373718836
_cell_length_c       5.944004532162446
_cell_angle_alpha    60.000001124646474
_cell_angle_beta     60.00000015761284
_cell_angle_gamma    60.000001616908335

_space_group_name_H-M_alt    "P 1"
_space_group_IT_number       1

loop_
  _space_group_symop_operation_xyz
  'x, y, z'

loop_
  _atom_site_type_symbol
  _atom_site_label
  _atom_site_symmetry_multiplicity
  _atom_site_fract_x
  _atom_site_fract_y
  _atom_site_fract_z
  _atom_site_occupancy
  Nb  Nb1       1.0  0.25000018179449096  0.2500000001405388  0.25000028321243983  1.0000
  Nb  Nb2       1.0  0.74999982221657  0.7499998912166057  0.7499997735633098  1.0000
  Cr  Cr1       1.0  1.5207741010211822e-08  0.9999999835162349  1.0494479632128315e-07  1.0000
  S   S1        1.0  0.2679968520325635  0.26799681280423693  0.7320032129215527  1.0000
  S   S2        1.0  0.7320030125972022  0.7320032227858813  0.2679971577134492  1.0000
  S   S3        1.0  0.7320030826459254  0.26799687578648856  0.26799678334486865  1.0000
  S   S4        1.0  0.26799692208892945  0.7320031474407951  0.7320030456266374  1.0000
  S   S5        1.0  0.2679968821734015  0.7320030602865056  0.2679967099274225  1.0000
  S   S6        1.0  0.7320032090573279  0.26799697736407413  0.7320029642777138  1.0000
