data_image0
_chemical_formula_structural       Nb2CCl6
_chemical_formula_sum              "Nb2 C1 Cl6"
_cell_length_a       6.532458050752384
_cell_length_b       6.532458040229234
_cell_length_c       6.532458101731676
_cell_angle_alpha    59.999997279529445
_cell_angle_beta     59.999998060023934
_cell_angle_gamma    59.99999817019971

_space_group_name_H-M_alt    "P 1"
_space_group_IT_number       1

loop_
  _space_group_symop_operation_xyz
  'x, y, z'

loop_
  _atom_site_type_symbol
  _atom_site_label
  _atom_site_symmetry_multiplicity
  _atom_site_fract_x
  _atom_site_fract_y
  _atom_site_fract_z
  _atom_site_occupancy
  Nb  Nb1       1.0  0.24999996931112112  0.2500000126217175  0.24999991238448532  1.0000
  Nb  Nb2       1.0  0.749999865831777  0.7500000209913923  0.7500004172384909  1.0000
  C   C1        1.0  0.9999999612008444  2.6248050988439967e-08  0.9999999741283886  1.0000
  Cl  Cl1       1.0  0.25783371862288035  0.2578337327347783  0.7421662722080129  1.0000
  Cl  Cl2       1.0  0.7421662945334926  0.7421662971286187  0.25783354165423034  1.0000
  Cl  Cl3       1.0  0.7421663527391713  0.2578336996553344  0.2578336882510863  1.0000
  Cl  Cl4       1.0  0.2578337461399082  0.7421662533387687  0.7421662926359905  1.0000
  Cl  Cl5       1.0  0.25783380634990394  0.7421663253579535  0.2578336046005179  1.0000
  Cl  Cl6       1.0  0.7421662860835873  0.25783362576129076  0.742166299313465  1.0000
