data_image0
_chemical_formula_structural       Nb2CrCl6
_chemical_formula_sum              "Nb2 Cr1 Cl6"
_cell_length_a       6.522709000167125
_cell_length_b       6.522708873176447
_cell_length_c       6.522709031158414
_cell_angle_alpha    59.99999959025505
_cell_angle_beta     59.999999280110195
_cell_angle_gamma    60.00000018661223

_space_group_name_H-M_alt    "P 1"
_space_group_IT_number       1

loop_
  _space_group_symop_operation_xyz
  'x, y, z'

loop_
  _atom_site_type_symbol
  _atom_site_label
  _atom_site_symmetry_multiplicity
  _atom_site_fract_x
  _atom_site_fract_y
  _atom_site_fract_z
  _atom_site_occupancy
  Nb  Nb1       1.0  0.2499999231785729  0.2499999813641164  0.25000007261251617  1.0000
  Nb  Nb2       1.0  0.750000096555416  0.7499998764964856  0.7499999884737834  1.0000
  Cr  Cr1       1.0  0.9999999775048938  3.7553257475125215e-09  2.010162764849633e-08  1.0000
  Cl  Cl1       1.0  0.25158748360076166  0.2515875392926441  0.748412425192748  1.0000
  Cl  Cl2       1.0  0.7484125157089703  0.7484125232332184  0.25158750237920646  1.0000
  Cl  Cl3       1.0  0.7484125343323692  0.251587531090359  0.2515874673098819  1.0000
  Cl  Cl4       1.0  0.2515874962348953  0.748412501392897  0.7484124964491373  1.0000
  Cl  Cl5       1.0  0.2515874551304723  0.7484125375626514  0.25158754558500757  1.0000
  Cl  Cl6       1.0  0.7484125179472515  0.25158750806424485  0.7484124863401221  1.0000
