data_image0
_chemical_formula_structural       Nb2CuF6
_chemical_formula_sum              "Nb2 Cu1 F6"
_cell_length_a       5.392837355004659
_cell_length_b       5.392837260015
_cell_length_c       5.392837470035536
_cell_angle_alpha    59.99999849552571
_cell_angle_beta     59.999997308149574
_cell_angle_gamma    59.99999972275601

_space_group_name_H-M_alt    "P 1"
_space_group_IT_number       1

loop_
  _space_group_symop_operation_xyz
  'x, y, z'

loop_
  _atom_site_type_symbol
  _atom_site_label
  _atom_site_symmetry_multiplicity
  _atom_site_fract_x
  _atom_site_fract_y
  _atom_site_fract_z
  _atom_site_occupancy
  Nb  Nb1       1.0  0.249999713762112  0.25000018455216205  0.2500001681357071  1.0000
  Nb  Nb2       1.0  0.7499998384337758  0.7499998882363568  0.7500002734433344  1.0000
  Cu  Cu1       1.0  0.999999967882382  0.9999999999999998  6.241659458882016e-08  1.0000
  F   F1        1.0  0.25863885160483535  0.25863879860891137  0.7413610815745343  1.0000
  F   F2        1.0  0.7413612103873202  0.741361151542454  0.2586387677479916  1.0000
  F   F3        1.0  0.7413612845450924  0.2586389471142425  0.2586387121413689  1.0000
  F   F4        1.0  0.2586389443918158  0.741361118861109  0.7413611571218767  1.0000
  F   F5        1.0  0.2586388969251182  0.7413611232343257  0.2586387594478422  1.0000
  F   F6        1.0  0.7413612841081888  0.25863879739328083  0.7413610191556259  1.0000
