data_image0
_chemical_formula_structural       Nb2CrSe6
_chemical_formula_sum              "Nb2 Cr1 Se6"
_cell_length_a       6.316523784213569
_cell_length_b       6.3165239132919915
_cell_length_c       6.31652366813374
_cell_angle_alpha    60.00000036462585
_cell_angle_beta     60.00000022648733
_cell_angle_gamma    60.00000067808268

_space_group_name_H-M_alt    "P 1"
_space_group_IT_number       1

loop_
  _space_group_symop_operation_xyz
  'x, y, z'

loop_
  _atom_site_type_symbol
  _atom_site_label
  _atom_site_symmetry_multiplicity
  _atom_site_fract_x
  _atom_site_fract_y
  _atom_site_fract_z
  _atom_site_occupancy
  Nb  Nb1       1.0  0.2500000165596154  0.24999994670210351  0.24999985062026586  1.0000
  Nb  Nb2       1.0  0.7499998918348462  0.7500000010394783  0.7500001376646019  1.0000
  Cr  Cr1       1.0  3.107707622435751e-08  2.5553097261034897e-16  0.9999999607142223  1.0000
  Se  Se1       1.0  0.26586455017771055  0.26586449400704626  0.7341354945874196  1.0000
  Se  Se2       1.0  0.7341354496008908  0.7341354866967505  0.2658645771740056  1.0000
  Se  Se3       1.0  0.7341354836909194  0.2658645878775314  0.265864469619433  1.0000
  Se  Se4       1.0  0.26586450046516036  0.734135445178021  0.734135515701955  1.0000
  Se  Se5       1.0  0.265864589662164  0.7341354901010249  0.26586451269627503  1.0000
  Se  Se6       1.0  0.7341354844935545  0.2658645526492966  0.7341354797712835  1.0000
