data_image0
_chemical_formula_structural       Nb2CrO6
_chemical_formula_sum              "Nb2 Cr1 O6"
_cell_length_a       4.922818831946689
_cell_length_b       4.922818943126713
_cell_length_c       4.922818777127882
_cell_angle_alpha    60.00000020590698
_cell_angle_beta     60.000001078143555
_cell_angle_gamma    59.9999991845087

_space_group_name_H-M_alt    "P 1"
_space_group_IT_number       1

loop_
  _space_group_symop_operation_xyz
  'x, y, z'

loop_
  _atom_site_type_symbol
  _atom_site_label
  _atom_site_symmetry_multiplicity
  _atom_site_fract_x
  _atom_site_fract_y
  _atom_site_fract_z
  _atom_site_occupancy
  Nb  Nb1       1.0  0.2499998953359653  0.25000005722059976  0.2500001353605958  1.0000
  Nb  Nb2       1.0  0.7499999596433833  0.749999885554059  0.7500000304228923  1.0000
  Cr  Cr1       1.0  1.982991000102417e-08  6.717312129294603e-08  0.999999960561197  1.0000
  O   O1        1.0  0.2597776096820852  0.2597774865323866  0.7402223870805804  1.0000
  O   O2        1.0  0.7402224263115524  0.7402224761454189  0.2597774913593913  1.0000
  O   O3        1.0  0.7402225219622681  0.25977755129917235  0.2597775176708841  1.0000
  O   O4        1.0  0.259777552768433  0.7402224710880728  0.7402224049882357  1.0000
  O   O5        1.0  0.2597775713010288  0.7402224051815688  0.2597775398670154  1.0000
  O   O6        1.0  0.7402224598346965  0.2597776072541023  0.7402224989450658  1.0000
