data_image0
_chemical_formula_structural       Nb2CuBr6
_chemical_formula_sum              "Nb2 Cu1 Br6"
_cell_length_a       6.609912396159226
_cell_length_b       6.60991227859551
_cell_length_c       6.609912105856702
_cell_angle_alpha    60.00000122134273
_cell_angle_beta     60.00000139976179
_cell_angle_gamma    60.000002260237125

_space_group_name_H-M_alt    "P 1"
_space_group_IT_number       1

loop_
  _space_group_symop_operation_xyz
  'x, y, z'

loop_
  _atom_site_type_symbol
  _atom_site_label
  _atom_site_symmetry_multiplicity
  _atom_site_fract_x
  _atom_site_fract_y
  _atom_site_fract_z
  _atom_site_occupancy
  Nb  Nb1       1.0  0.24999994781341472  0.250000065160707  0.25000005869769265  1.0000
  Nb  Nb2       1.0  0.7500001159632828  0.7500000120458931  0.7499998683086531  1.0000
  Cu  Cu1       1.0  0.9999999885829286  1.852891188054416e-08  0.9999999419804206  1.0000
  Br  Br1       1.0  0.2570939592050365  0.2570939578583675  0.7429060457111369  1.0000
  Br  Br2       1.0  0.7429060593999732  0.7429060452325825  0.25709396363206877  1.0000
  Br  Br3       1.0  0.7429060419510475  0.2570939310419863  0.2570939600597998  1.0000
  Br  Br4       1.0  0.2570939269469247  0.7429060220208993  0.742906085535042  1.0000
  Br  Br5       1.0  0.25709390705541774  0.7429059829003094  0.2570940000577847  1.0000
  Br  Br6       1.0  0.742906049720065  0.2570939646039025  0.7429060816094684  1.0000
