data_image0
_chemical_formula_structural       Nb2FeCl6
_chemical_formula_sum              "Nb2 Fe1 Cl6"
_cell_length_a       6.483995094688976
_cell_length_b       6.483995076258149
_cell_length_c       6.483995285549497
_cell_angle_alpha    60.000001081354554
_cell_angle_beta     60.00000202960741
_cell_angle_gamma    60.00000029870521

_space_group_name_H-M_alt    "P 1"
_space_group_IT_number       1

loop_
  _space_group_symop_operation_xyz
  'x, y, z'

loop_
  _atom_site_type_symbol
  _atom_site_label
  _atom_site_symmetry_multiplicity
  _atom_site_fract_x
  _atom_site_fract_y
  _atom_site_fract_z
  _atom_site_occupancy
  Nb  Nb1       1.0  0.24999958014252202  0.24999958333622505  0.2500005000537273  1.0000
  Nb  Nb2       1.0  0.7499999309093838  0.7500001364420573  0.7499999772802655  1.0000
  Fe  Fe1       1.0  1.778993749967965e-08  3.211085464924111e-08  0.999999945746684  1.0000
  Cl  Cl1       1.0  0.24920030077305633  0.249200292108567  0.7507996938999474  1.0000
  Cl  Cl2       1.0  0.750799654836149  0.750799835666459  0.24920025382568856  1.0000
  Cl  Cl3       1.0  0.7507999164167254  0.24920029525697954  0.24920025795220305  1.0000
  Cl  Cl4       1.0  0.24920034571427083  0.7507998211848026  0.7507996223766333  1.0000
  Cl  Cl5       1.0  0.24920027446366405  0.7507998184347476  0.2492002508690068  1.0000
  Cl  Cl6       1.0  0.7507999855285128  0.24920019223009734  0.750799486008556  1.0000
