data_image0
_chemical_formula_structural       Nb2FeSe6
_chemical_formula_sum              "Nb2 Fe1 Se6"
_cell_length_a       6.380035158826546
_cell_length_b       6.380034998972138
_cell_length_c       6.380035289580976
_cell_angle_alpha    59.99999803357083
_cell_angle_beta     60.000001432948416
_cell_angle_gamma    60.00000047100831

_space_group_name_H-M_alt    "P 1"
_space_group_IT_number       1

loop_
  _space_group_symop_operation_xyz
  'x, y, z'

loop_
  _atom_site_type_symbol
  _atom_site_label
  _atom_site_symmetry_multiplicity
  _atom_site_fract_x
  _atom_site_fract_y
  _atom_site_fract_z
  _atom_site_occupancy
  Nb  Nb1       1.0  0.24999965743044  0.2500000377093353  0.25000026608370973  1.0000
  Nb  Nb2       1.0  0.7500001908328783  0.7499996120987763  0.7500002263300211  1.0000
  Fe  Fe1       1.0  0.9999999812614614  1.919652033369439e-09  3.7072746296062913e-09  1.0000
  Se  Se1       1.0  0.2590123687712922  0.2590122134192399  0.7409877780330444  1.0000
  Se  Se2       1.0  0.7409875164858128  0.7409879009447358  0.25901226768217883  1.0000
  Se  Se3       1.0  0.7409878249026988  0.2590125326465456  0.25901206330282384  1.0000
  Se  Se4       1.0  0.2590123352343741  0.7409875932353519  0.740987622913715  1.0000
  Se  Se5       1.0  0.2590121958249557  0.7409876495022722  0.2590124150656187  1.0000
  Se  Se6       1.0  0.7409879161954228  0.2590124687010143  0.7409873664463184  1.0000
