data_image0
_chemical_formula_structural       Nb2FeF6
_chemical_formula_sum              "Nb2 Fe1 F6"
_cell_length_a       5.460181783508369
_cell_length_b       5.460181114936282
_cell_length_c       5.460181935365297
_cell_angle_alpha    59.999998183112076
_cell_angle_beta     60.000004039355126
_cell_angle_gamma    59.999998876328895

_space_group_name_H-M_alt    "P 1"
_space_group_IT_number       1

loop_
  _space_group_symop_operation_xyz
  'x, y, z'

loop_
  _atom_site_type_symbol
  _atom_site_label
  _atom_site_symmetry_multiplicity
  _atom_site_fract_x
  _atom_site_fract_y
  _atom_site_fract_z
  _atom_site_occupancy
  Nb  Nb1       1.0  0.2500009190121333  0.24999845235939852  0.2500007183324414  1.0000
  Nb  Nb2       1.0  0.7499989685454447  0.7500019516396836  0.7499988637466026  1.0000
  Fe  Fe1       1.0  3.5661050255373273e-09  7.177754002934451e-08  0.9999999092163959  1.0000
  F   F1        1.0  0.2578765171165832  0.2578754247535761  0.7421239047040572  1.0000
  F   F2        1.0  0.7421236689531485  0.7421244072682387  0.25787626281053855  1.0000
  F   F3        1.0  0.7421237589954394  0.2578753416397238  0.25787666047876034  1.0000
  F   F4        1.0  0.25787624599615033  0.7421244118754021  0.7421235763906957  1.0000
  F   F5        1.0  0.25787607134070795  0.7421243049445083  0.2578759409560268  1.0000
  F   F6        1.0  0.7421238589046215  0.25787563474361225  0.7421241706053132  1.0000
