data_image0
_chemical_formula_structural       Nb2FeS6
_chemical_formula_sum              "Nb2 Fe1 S6"
_cell_length_a       5.834102106175885
_cell_length_b       5.834101602494455
_cell_length_c       5.834102041663982
_cell_angle_alpha    60.0000015578418
_cell_angle_beta     60.000000261220684
_cell_angle_gamma    59.9999955752468

_space_group_name_H-M_alt    "P 1"
_space_group_IT_number       1

loop_
  _space_group_symop_operation_xyz
  'x, y, z'

loop_
  _atom_site_type_symbol
  _atom_site_label
  _atom_site_symmetry_multiplicity
  _atom_site_fract_x
  _atom_site_fract_y
  _atom_site_fract_z
  _atom_site_occupancy
  Nb  Nb1       1.0  0.24999977616689556  0.25000089330305303  0.2499996468620975  1.0000
  Nb  Nb2       1.0  0.7500002819475573  0.7499991782997948  0.750000410070253  1.0000
  Fe  Fe1       1.0  0.999999957513429  1.8683646560672582e-07  0.9999998112689895  1.0000
  S   S1        1.0  0.2657881356572263  0.26578832449837003  0.7342118289798579  1.0000
  S   S2        1.0  0.7342117626031269  0.7342115497715798  0.26578830370239515  1.0000
  S   S3        1.0  0.7342117945419376  0.2657883962422747  0.2657880091262867  1.0000
  S   S4        1.0  0.26578826517095927  0.7342117299420087  0.7342119168725353  1.0000
  S   S5        1.0  0.2657881234924684  0.7342115508151127  0.2657883489133257  1.0000
  S   S6        1.0  0.73421185194064  0.2657881513133655  0.7342117781174252  1.0000
