data_image0
_chemical_formula_structural       Nb2FeI6
_chemical_formula_sum              "Nb2 Fe1 I6"
_cell_length_a       7.329989331258302
_cell_length_b       7.329989425991088
_cell_length_c       7.329989384492713
_cell_angle_alpha    59.999999255615485
_cell_angle_beta     59.99999807895529
_cell_angle_gamma    59.999998561087835

_space_group_name_H-M_alt    "P 1"
_space_group_IT_number       1

loop_
  _space_group_symop_operation_xyz
  'x, y, z'

loop_
  _atom_site_type_symbol
  _atom_site_label
  _atom_site_symmetry_multiplicity
  _atom_site_fract_x
  _atom_site_fract_y
  _atom_site_fract_z
  _atom_site_occupancy
  Nb  Nb1       1.0  0.2500000411622127  0.24999987418208805  0.25000009165580234  1.0000
  Nb  Nb2       1.0  0.7500000951554117  0.750000061984694  0.7499998797818772  1.0000
  Fe  Fe1       1.0  0.9999999375281606  2.6733897653870382e-08  0.9999999810339931  1.0000
  I   I1        1.0  0.24478811117145166  0.24478824765619966  0.7552117892193178  1.0000
  I   I2        1.0  0.7552117897232794  0.7552117804083553  0.24478822533149677  1.0000
  I   I3        1.0  0.7552117498539654  0.24478822646540752  0.24478818282974582  1.0000
  I   I4        1.0  0.24478816898889996  0.755211851725204  0.7552118004124895  1.0000
  I   I5        1.0  0.24478824157083362  0.7552117402551499  0.24478825527195622  1.0000
  I   I6        1.0  0.7552118695418294  0.24478819591163217  0.7552118010739024  1.0000
