data_image0
_chemical_formula_structural       Nb2FeO6
_chemical_formula_sum              "Nb2 Fe1 O6"
_cell_length_a       4.944715129206196
_cell_length_b       4.944715118992275
_cell_length_c       4.944715212769497
_cell_angle_alpha    59.999999296181755
_cell_angle_beta     59.99999965132732
_cell_angle_gamma    59.999999453673716

_space_group_name_H-M_alt    "P 1"
_space_group_IT_number       1

loop_
  _space_group_symop_operation_xyz
  'x, y, z'

loop_
  _atom_site_type_symbol
  _atom_site_label
  _atom_site_symmetry_multiplicity
  _atom_site_fract_x
  _atom_site_fract_y
  _atom_site_fract_z
  _atom_site_occupancy
  Nb  Nb1       1.0  0.2500002377070526  0.2499999124813937  0.2500000694775461  1.0000
  Nb  Nb2       1.0  0.750000077086789  0.7500000272387364  0.7499999265212824  1.0000
  Fe  Fe1       1.0  0.9999999901167982  0.9999999876156174  1.9223236876711333e-08  1.0000
  O   O1        1.0  0.25669975981234766  0.25669984531198176  0.7432999949013986  1.0000
  O   O2        1.0  0.7433001754007044  0.7433001612838154  0.25670003004123737  1.0000
  O   O3        1.0  0.7433002103239547  0.2566998055228047  0.2566997096755246  1.0000
  O   O4        1.0  0.25669964520825356  0.7433002159342519  0.7433001939774552  1.0000
  O   O5        1.0  0.25669985525490296  0.7433003182947352  0.25669969246252344  1.0000
  O   O6        1.0  0.7433000589168506  0.2566997304079629  0.7433003401485617  1.0000
