data_image0
_chemical_formula_structural       Nb2GeSe6
_chemical_formula_sum              "Nb2 Ge1 Se6"
_cell_length_a       6.473789743870865
_cell_length_b       6.473789745417401
_cell_length_c       6.473789800895912
_cell_angle_alpha    60.00000170112
_cell_angle_beta     60.000002053658086
_cell_angle_gamma    60.00000104568886

_space_group_name_H-M_alt    "P 1"
_space_group_IT_number       1

loop_
  _space_group_symop_operation_xyz
  'x, y, z'

loop_
  _atom_site_type_symbol
  _atom_site_label
  _atom_site_symmetry_multiplicity
  _atom_site_fract_x
  _atom_site_fract_y
  _atom_site_fract_z
  _atom_site_occupancy
  Nb  Nb1       1.0  0.25000001531133387  0.25000021079619333  0.24999986570825528  1.0000
  Nb  Nb2       1.0  0.749999901109001  0.7499999645650194  0.7500000714154048  1.0000
  Ge  Ge1       1.0  0.9999999953878506  0.9999999924325945  3.2349511542556606e-08  1.0000
  Se  Se1       1.0  0.26505910587597686  0.2650590751356855  0.7349409319310692  1.0000
  Se  Se2       1.0  0.7349409779421806  0.7349408334744723  0.2650590378776133  1.0000
  Se  Se3       1.0  0.7349408591448957  0.26505901815518657  0.26505919554877233  1.0000
  Se  Se4       1.0  0.26505916530880314  0.7349408545097946  0.734940894515168  1.0000
  Se  Se5       1.0  0.26505918835740794  0.7349408216162719  0.2650590398846601  1.0000
  Se  Se6       1.0  0.7349408026364534  0.26505921563978485  0.7349409351835751  1.0000
