data_image0
_chemical_formula_structural       Nb2GeO6
_chemical_formula_sum              "Nb2 Ge1 O6"
_cell_length_a       4.942825687461972
_cell_length_b       4.942825665772825
_cell_length_c       4.942825740323313
_cell_angle_alpha    59.99999951689509
_cell_angle_beta     59.99999920979976
_cell_angle_gamma    59.99999959859613

_space_group_name_H-M_alt    "P 1"
_space_group_IT_number       1

loop_
  _space_group_symop_operation_xyz
  'x, y, z'

loop_
  _atom_site_type_symbol
  _atom_site_label
  _atom_site_symmetry_multiplicity
  _atom_site_fract_x
  _atom_site_fract_y
  _atom_site_fract_z
  _atom_site_occupancy
  Nb  Nb1       1.0  0.24999997587018769  0.2499999194823787  0.24999998068663373  1.0000
  Nb  Nb2       1.0  0.7500000213100644  0.7500000310077035  0.7500000482380632  1.0000
  Ge  Ge1       1.0  1.4441812671702156e-08  0.99999997769959  1.2021835570409245e-08  1.0000
  O   O1        1.0  0.25797548909848494  0.25797550346050274  0.7420245655522258  1.0000
  O   O2        1.0  0.7420245117620319  0.7420244990638696  0.2579754355151936  1.0000
  O   O3        1.0  0.742024503428562  0.2579754933504414  0.25797549071003134  1.0000
  O   O4        1.0  0.257975508829108  0.7420245240408708  0.7420244972253415  1.0000
  O   O5        1.0  0.25797547142151617  0.742024488466255  0.25797554115708005  1.0000
  O   O6        1.0  0.7420245104666686  0.2579755289250573  0.7420244801712438  1.0000
