data_image0
_chemical_formula_structural       Nb2GeF6
_chemical_formula_sum              "Nb2 Ge1 F6"
_cell_length_a       5.6489331098878885
_cell_length_b       5.648932047817168
_cell_length_c       5.648932356353993
_cell_angle_alpha    59.99998441128191
_cell_angle_beta     59.99999560504808
_cell_angle_gamma    59.99998029795069

_space_group_name_H-M_alt    "P 1"
_space_group_IT_number       1

loop_
  _space_group_symop_operation_xyz
  'x, y, z'

loop_
  _atom_site_type_symbol
  _atom_site_label
  _atom_site_symmetry_multiplicity
  _atom_site_fract_x
  _atom_site_fract_y
  _atom_site_fract_z
  _atom_site_occupancy
  Nb  Nb1       1.0  0.24999833505414032  0.25000428956800413  0.24999867365515194  1.0000
  Nb  Nb2       1.0  0.7500032895090193  0.7500017029867235  0.7499958383358158  1.0000
  Ge  Ge1       1.0  0.9999999785031621  1.626075861596205e-07  0.99999944970794  1.0000
  F   F1        1.0  0.25568759528695756  0.255686716651051  0.7443133108562959  1.0000
  F   F2        1.0  0.7443132184485749  0.7443120561293507  0.25568750005381535  1.0000
  F   F3        1.0  0.7443134580626719  0.25568566349393707  0.25568815158886654  1.0000
  F   F4        1.0  0.2556865193205649  0.7443109455223359  0.744314727628709  1.0000
  F   F5        1.0  0.2556851073378019  0.7443116321820138  0.2556884621283539  1.0000
  F   F6        1.0  0.7443125811756887  0.2556867720216566  0.7443137699561234  1.0000
