data_image0
_chemical_formula_structural       Nb2GeTe6
_chemical_formula_sum              "Nb2 Ge1 Te6"
_cell_length_a       7.011359119863867
_cell_length_b       7.01135913333149
_cell_length_c       7.011359052535722
_cell_angle_alpha    59.99999995490459
_cell_angle_beta     60.00000006947632
_cell_angle_gamma    59.99999961146033

_space_group_name_H-M_alt    "P 1"
_space_group_IT_number       1

loop_
  _space_group_symop_operation_xyz
  'x, y, z'

loop_
  _atom_site_type_symbol
  _atom_site_label
  _atom_site_symmetry_multiplicity
  _atom_site_fract_x
  _atom_site_fract_y
  _atom_site_fract_z
  _atom_site_occupancy
  Nb  Nb1       1.0  0.24999982360082443  0.24999999911474796  0.2500000237186198  1.0000
  Nb  Nb2       1.0  0.7500000209668816  0.7499999921038368  0.7500002151609048  1.0000
  Ge  Ge1       1.0  1.4470972733448083e-09  1.0480805760610141e-08  0.9999999640846512  1.0000
  Te  Te1       1.0  0.2641777879504036  0.26417777418866323  0.7358222756987487  1.0000
  Te  Te2       1.0  0.7358222479745148  0.7358221716130973  0.264177659156946  1.0000
  Te  Te3       1.0  0.7358222509903393  0.26417783056294214  0.2641777476106729  1.0000
  Te  Te4       1.0  0.2641777332127182  0.7358222654636994  0.7358221864862495  1.0000
  Te  Te5       1.0  0.2641778424096664  0.7358222131498005  0.2641777613989645  1.0000
  Te  Te6       1.0  0.7358222905824344  0.2641777378923621  0.7358221693694188  1.0000
