data_image0
_chemical_formula_structural       Nb2GeI6
_chemical_formula_sum              "Nb2 Ge1 I6"
_cell_length_a       7.569780588624183
_cell_length_b       7.569780512350537
_cell_length_c       7.569780529421968
_cell_angle_alpha    59.99999946972814
_cell_angle_beta     60.00000043432255
_cell_angle_gamma    59.999998945860746

_space_group_name_H-M_alt    "P 1"
_space_group_IT_number       1

loop_
  _space_group_symop_operation_xyz
  'x, y, z'

loop_
  _atom_site_type_symbol
  _atom_site_label
  _atom_site_symmetry_multiplicity
  _atom_site_fract_x
  _atom_site_fract_y
  _atom_site_fract_z
  _atom_site_occupancy
  Nb  Nb1       1.0  0.24999996238767033  0.25000003709548085  0.2499999264496215  1.0000
  Nb  Nb2       1.0  0.7500000124474233  0.750000074073826  0.749999966495363  1.0000
  Ge  Ge1       1.0  7.085001153221341e-10  1.6179397601762288e-08  0.9999999849508397  1.0000
  I   I1        1.0  0.2596042479129198  0.2596042862960901  0.7403957363855167  1.0000
  I   I2        1.0  0.7403957892815732  0.7403956744048183  0.2596042547767003  1.0000
  I   I3        1.0  0.7403957456877179  0.25960421919325366  0.25960431233686687  1.0000
  I   I4        1.0  0.2596042640653039  0.7403957140026789  0.7403957670665181  1.0000
  I   I5        1.0  0.259604254082198  0.7403957734331893  0.25960427212063825  1.0000
  I   I6        1.0  0.7403957208322776  0.2596042002112376  0.7403957846621385  1.0000
