data_image0
_chemical_formula_structural       Nb2GeCl6
_chemical_formula_sum              "Nb2 Ge1 Cl6"
_cell_length_a       6.642298964517618
_cell_length_b       6.642299096170039
_cell_length_c       6.642299095553135
_cell_angle_alpha    59.999999072297854
_cell_angle_beta     59.999998883292626
_cell_angle_gamma    59.99999984176363

_space_group_name_H-M_alt    "P 1"
_space_group_IT_number       1

loop_
  _space_group_symop_operation_xyz
  'x, y, z'

loop_
  _atom_site_type_symbol
  _atom_site_label
  _atom_site_symmetry_multiplicity
  _atom_site_fract_x
  _atom_site_fract_y
  _atom_site_fract_z
  _atom_site_occupancy
  Nb  Nb1       1.0  0.24999979290978222  0.25000021599585637  0.24999989388323826  1.0000
  Nb  Nb2       1.0  0.74999995094217  0.7499998127204052  0.7500003837624567  1.0000
  Ge  Ge1       1.0  3.090566655116591e-08  0.9999999594351489  3.042314038947567e-08  1.0000
  Cl  Cl1       1.0  0.2531199509396308  0.2531198901922015  0.7468800894791991  1.0000
  Cl  Cl2       1.0  0.7468801137640877  0.7468800260487947  0.25311975427312816  1.0000
  Cl  Cl3       1.0  0.7468800859153301  0.25312018461100855  0.2531196322764676  1.0000
  Cl  Cl4       1.0  0.2531199611210651  0.7468798680753945  0.7468802890875731  1.0000
  Cl  Cl5       1.0  0.25311985331832965  0.7468801619048595  0.2531199358360482  1.0000
  Cl  Cl6       1.0  0.7468802644835021  0.2531198870938294  0.7468799911322044  1.0000
