data_image0
_chemical_formula_structural       Nb2GeBr6
_chemical_formula_sum              "Nb2 Ge1 Br6"
_cell_length_a       6.796562985854544
_cell_length_b       6.796563090926782
_cell_length_c       6.796562963472202
_cell_angle_alpha    60.000000226483756
_cell_angle_beta     59.9999990723649
_cell_angle_gamma    59.99999733655785

_space_group_name_H-M_alt    "P 1"
_space_group_IT_number       1

loop_
  _space_group_symop_operation_xyz
  'x, y, z'

loop_
  _atom_site_type_symbol
  _atom_site_label
  _atom_site_symmetry_multiplicity
  _atom_site_fract_x
  _atom_site_fract_y
  _atom_site_fract_z
  _atom_site_occupancy
  Nb  Nb1       1.0  0.24999994794320904  0.24999997278835806  0.2500000190201847  1.0000
  Nb  Nb2       1.0  0.7500000191981175  0.7499999580092045  0.7499999539682379  1.0000
  Ge  Ge1       1.0  4.393115822768808e-09  7.208024618685977e-09  8.9127488727202e-09  1.0000
  Br  Br1       1.0  0.2574800922127758  0.25748010898556056  0.7425199064058048  1.0000
  Br  Br2       1.0  0.7425199155471903  0.7425199191203351  0.2574800711857268  1.0000
  Br  Br3       1.0  0.7425199364029693  0.25748009870089783  0.25748009304599295  1.0000
  Br  Br4       1.0  0.25748005776541427  0.7425199294049982  0.7425199075259808  1.0000
  Br  Br5       1.0  0.25748006852605804  0.7425199530968187  0.25748015216777886  1.0000
  Br  Br6       1.0  0.7425199622300732  0.2574800569890142  0.7425198788463143  1.0000
