data_image0
_chemical_formula_structural       Nb2HfS6
_chemical_formula_sum              "Nb2 Hf1 S6"
_cell_length_a       6.253824155665868
_cell_length_b       6.25382415426804
_cell_length_c       6.253824249629718
_cell_angle_alpha    59.999999355509495
_cell_angle_beta     59.99999934071121
_cell_angle_gamma    60.00000058639268

_space_group_name_H-M_alt    "P 1"
_space_group_IT_number       1

loop_
  _space_group_symop_operation_xyz
  'x, y, z'

loop_
  _atom_site_type_symbol
  _atom_site_label
  _atom_site_symmetry_multiplicity
  _atom_site_fract_x
  _atom_site_fract_y
  _atom_site_fract_z
  _atom_site_occupancy
  Nb  Nb1       1.0  0.2500000824937981  0.24999996391752827  0.24999993707668267  1.0000
  Nb  Nb2       1.0  0.7500000307624025  0.7499999602963556  0.7500000500168823  1.0000
  Hf  Hf1       1.0  0.9999999778625227  0.9999999667073098  0.9999999861405224  1.0000
  S   S1        1.0  0.2705281462528921  0.2705283165968352  0.7294717472289297  1.0000
  S   S2        1.0  0.7294718091256118  0.7294717212038715  0.270528247618878  1.0000
  S   S3        1.0  0.7294717992709118  0.2705282398862658  0.2705281868864213  1.0000
  S   S4        1.0  0.2705281876082437  0.7294717920392607  0.7294717455789816  1.0000
  S   S5        1.0  0.2705282699915453  0.7294717964034002  0.2705282884740645  1.0000
  S   S6        1.0  0.7294716834285649  0.27052824727248687  0.7294718243419693  1.0000
