data_image0
_chemical_formula_structural       Nb2HfSe6
_chemical_formula_sum              "Nb2 Hf1 Se6"
_cell_length_a       6.533975734211494
_cell_length_b       6.53397579658862
_cell_length_c       6.5339756659760955
_cell_angle_alpha    60.00000181850975
_cell_angle_beta     60.00000123084746
_cell_angle_gamma    60.00000104378994

_space_group_name_H-M_alt    "P 1"
_space_group_IT_number       1

loop_
  _space_group_symop_operation_xyz
  'x, y, z'

loop_
  _atom_site_type_symbol
  _atom_site_label
  _atom_site_symmetry_multiplicity
  _atom_site_fract_x
  _atom_site_fract_y
  _atom_site_fract_z
  _atom_site_occupancy
  Nb  Nb1       1.0  0.2500000551279838  0.25000004354344557  0.24999999385830302  1.0000
  Nb  Nb2       1.0  0.7499998844135688  0.7500000987651086  0.7500000094339231  1.0000
  Hf  Hf1       1.0  0.999999990147051  0.999999960637072  7.772858564878407e-09  1.0000
  Se  Se1       1.0  0.27126796482162413  0.27126793764920704  0.7287320137760608  1.0000
  Se  Se2       1.0  0.7287321035345  0.7287319984725811  0.27126793331363175  1.0000
  Se  Se3       1.0  0.7287319756646561  0.271267921107764  0.271267967961301  1.0000
  Se  Se4       1.0  0.2712679834267266  0.7287320300094262  0.7287320981947641  1.0000
  Se  Se5       1.0  0.2712679882965514  0.7287320667758671  0.27126790811675544  1.0000
  Se  Se6       1.0  0.7287320521575961  0.2712679424485019  0.7287320714692592  1.0000
