data_image0
_chemical_formula_structural       Nb2IrO6
_chemical_formula_sum              "Nb2 Ir1 O6"
_cell_length_a       5.089151580130131
_cell_length_b       5.08915138066059
_cell_length_c       5.0891514299405305
_cell_angle_alpha    59.99999906198886
_cell_angle_beta     59.999999276708316
_cell_angle_gamma    59.99999844641481

_space_group_name_H-M_alt    "P 1"
_space_group_IT_number       1

loop_
  _space_group_symop_operation_xyz
  'x, y, z'

loop_
  _atom_site_type_symbol
  _atom_site_label
  _atom_site_symmetry_multiplicity
  _atom_site_fract_x
  _atom_site_fract_y
  _atom_site_fract_z
  _atom_site_occupancy
  Nb  Nb1       1.0  0.250000070959046  0.2499996115712608  0.24999998046326816  1.0000
  Nb  Nb2       1.0  0.7499997475814156  0.750000271441924  0.7499998997554868  1.0000
  Ir  Ir1       1.0  0.9999999857217706  0.9999999951868405  2.9195335962315103e-08  1.0000
  O   O1        1.0  0.26486232669366283  0.2648620295766335  0.7351378388527724  1.0000
  O   O2        1.0  0.7351376278654216  0.7351380579958334  0.2648622738946734  1.0000
  O   O3        1.0  0.735138012954428  0.2648622349956021  0.2648621107689067  1.0000
  O   O4        1.0  0.2648622183491676  0.7351377370610336  0.7351379311890168  1.0000
  O   O5        1.0  0.26486214290749127  0.7351379467063175  0.264862176097326  1.0000
  O   O6        1.0  0.7351378890709982  0.2648621264266704  0.7351377558228823  1.0000
