data_image0
_chemical_formula_structural       Nb2MnCl6
_chemical_formula_sum              "Nb2 Mn1 Cl6"
_cell_length_a       6.4851932143764595
_cell_length_b       6.485193226842412
_cell_length_c       6.4851933076374095
_cell_angle_alpha    60.00000045689305
_cell_angle_beta     59.999999468872645
_cell_angle_gamma    60.00000027545991

_space_group_name_H-M_alt    "P 1"
_space_group_IT_number       1

loop_
  _space_group_symop_operation_xyz
  'x, y, z'

loop_
  _atom_site_type_symbol
  _atom_site_label
  _atom_site_symmetry_multiplicity
  _atom_site_fract_x
  _atom_site_fract_y
  _atom_site_fract_z
  _atom_site_occupancy
  Nb  Nb1       1.0  0.2499999719590096  0.25000007658368145  0.25000003064609266  1.0000
  Nb  Nb2       1.0  0.7500000995854417  0.7499996839673589  0.7500001835414136  1.0000
  Mn  Mn1       1.0  1.0143077504329305e-08  2.8327872765462824e-08  0.9999999653447842  1.0000
  Cl  Cl1       1.0  0.25364341739411017  0.2536436541794086  0.7463564553433105  1.0000
  Cl  Cl2       1.0  0.7463564923328293  0.7463564689684037  0.2536435474324345  1.0000
  Cl  Cl3       1.0  0.7463564873903398  0.2536436333950735  0.2536434189805233  1.0000
  Cl  Cl4       1.0  0.25364347931318665  0.7463564897527378  0.7463564535366393  1.0000
  Cl  Cl5       1.0  0.25364357573471163  0.7463564470251707  0.25364345138991845  1.0000
  Cl  Cl6       1.0  0.7463564620661892  0.25364352692917713  0.7463565002666137  1.0000
