data_image0
_chemical_formula_structural       Nb2MnS6
_chemical_formula_sum              "Nb2 Mn1 S6"
_cell_length_a       5.9294176185038445
_cell_length_b       5.929417016401334
_cell_length_c       5.929416586771348
_cell_angle_alpha    60.000001515458834
_cell_angle_beta     60.00000930835033
_cell_angle_gamma    59.99999777595554

_space_group_name_H-M_alt    "P 1"
_space_group_IT_number       1

loop_
  _space_group_symop_operation_xyz
  'x, y, z'

loop_
  _atom_site_type_symbol
  _atom_site_label
  _atom_site_symmetry_multiplicity
  _atom_site_fract_x
  _atom_site_fract_y
  _atom_site_fract_z
  _atom_site_occupancy
  Nb  Nb1       1.0  0.25000114459367784  0.25000036679449666  0.2499990464006558  1.0000
  Nb  Nb2       1.0  0.7499979826183747  0.7499993488055662  0.7500028672569024  1.0000
  Mn  Mn1       1.0  0.999999992976445  6.19662145884113e-08  0.999999555961548  1.0000
  S   S1        1.0  0.26664823387671627  0.2666478790502835  0.7333522951974227  1.0000
  S   S2        1.0  0.7333521500826736  0.7333518695984117  0.2666476698926093  1.0000
  S   S3        1.0  0.733351257133766  0.2666487142227375  0.2666471961626937  1.0000
  S   S4        1.0  0.2666488369173884  0.7333521787352292  0.7333516165289822  1.0000
  S   S5        1.0  0.2666490022677783  0.7333517786208721  0.26664706752374756  1.0000
  S   S6        1.0  0.7333512678170748  0.2666479844866122  0.7333527583854199  1.0000
