data_image0
_chemical_formula_structural       Nb2MoO6
_chemical_formula_sum              "Nb2 Mo1 O6"
_cell_length_a       5.105154117515246
_cell_length_b       5.105154312277365
_cell_length_c       5.105154267940423
_cell_angle_alpha    59.99999958591774
_cell_angle_beta     59.999999184051084
_cell_angle_gamma    60.00000035397156

_space_group_name_H-M_alt    "P 1"
_space_group_IT_number       1

loop_
  _space_group_symop_operation_xyz
  'x, y, z'

loop_
  _atom_site_type_symbol
  _atom_site_label
  _atom_site_symmetry_multiplicity
  _atom_site_fract_x
  _atom_site_fract_y
  _atom_site_fract_z
  _atom_site_occupancy
  Nb  Nb1       1.0  0.2499999684247973  0.2500000027058668  0.24999997345568686  1.0000
  Nb  Nb2       1.0  0.7500001920960558  0.7499998329879743  0.7500001367948915  1.0000
  Mo  Mo1       1.0  0.9999999986750487  0.9999999904038563  0.9999999976253289  1.0000
  O   O1        1.0  0.26366512662262737  0.2636652982233979  0.7363348476221231  1.0000
  O   O2        1.0  0.7363348095611252  0.7363347965663264  0.2636651002975171  1.0000
  O   O3        1.0  0.7363347955365271  0.2636651830451769  0.2636652346688016  1.0000
  O   O4        1.0  0.2636651394830168  0.7363348541676848  0.7363347308685466  1.0000
  O   O5        1.0  0.2636651778652952  0.7363347910363904  0.26366519138375344  1.0000
  O   O6        1.0  0.7363347783104235  0.26366524377743505  0.7363347863218768  1.0000
