data_image0
_chemical_formula_structural       Nb2MoS6
_chemical_formula_sum              "Nb2 Mo1 S6"
_cell_length_a       6.082412334294046
_cell_length_b       6.08241261828692
_cell_length_c       6.082413319854129
_cell_angle_alpha    59.99999408302401
_cell_angle_beta     59.99999731014068
_cell_angle_gamma    59.99999955970509

_space_group_name_H-M_alt    "P 1"
_space_group_IT_number       1

loop_
  _space_group_symop_operation_xyz
  'x, y, z'

loop_
  _atom_site_type_symbol
  _atom_site_label
  _atom_site_symmetry_multiplicity
  _atom_site_fract_x
  _atom_site_fract_y
  _atom_site_fract_z
  _atom_site_occupancy
  Nb  Nb1       1.0  0.24999964486274676  0.24999968619313506  0.25000119541470694  1.0000
  Nb  Nb2       1.0  0.7500008751992917  0.7500002647165074  0.7499967106983266  1.0000
  Mo  Mo1       1.0  0.999999850179074  0.9999999254973831  1.5655204459440927e-07  1.0000
  S   S1        1.0  0.2705938830078502  0.27059414074404736  0.7294060386336686  1.0000
  S   S2        1.0  0.7294055785881871  0.7294062632219025  0.2705947711254821  1.0000
  S   S3        1.0  0.7294057558441311  0.27059371694795453  0.270594745911012  1.0000
  S   S4        1.0  0.270594055128201  0.7294061856355673  0.7294060379179963  1.0000
  S   S5        1.0  0.2705940902461616  0.7294055306715032  0.27059437580839735  1.0000
  S   S6        1.0  0.7294063156637517  0.2705942672056699  0.7294058834106842  1.0000
