data_image0
_chemical_formula_structural       Nb2MgBr6
_chemical_formula_sum              "Nb2 Mg1 Br6"
_cell_length_a       6.688030902012273
_cell_length_b       6.68803086160376
_cell_length_c       6.688031026794088
_cell_angle_alpha    60.00000040815408
_cell_angle_beta     60.00000007343286
_cell_angle_gamma    60.00000064487278

_space_group_name_H-M_alt    "P 1"
_space_group_IT_number       1

loop_
  _space_group_symop_operation_xyz
  'x, y, z'

loop_
  _atom_site_type_symbol
  _atom_site_label
  _atom_site_symmetry_multiplicity
  _atom_site_fract_x
  _atom_site_fract_y
  _atom_site_fract_z
  _atom_site_occupancy
  Nb  Nb1       1.0  0.2499998533345215  0.2499999612106811  0.25000011826729696  1.0000
  Nb  Nb2       1.0  0.749999979511487  0.7499999458945067  0.7500001826962859  1.0000
  Mg  Mg1       1.0  2.056265987972956e-08  0.9999999175938024  0.9999999681230165  1.0000
  Br  Br1       1.0  0.25757964632295516  0.2575796705864479  0.7424203038882619  1.0000
  Br  Br2       1.0  0.7424203964400122  0.7424204251373673  0.2575795735262744  1.0000
  Br  Br3       1.0  0.7424203826764939  0.2575796616005373  0.2575796214917813  1.0000
  Br  Br4       1.0  0.2575796259930071  0.7424203810170623  0.7424203354075963  1.0000
  Br  Br5       1.0  0.2575797114829118  0.7424203682232893  0.25757959825997767  1.0000
  Br  Br6       1.0  0.7424203858494204  0.2575796725630617  0.7424202898050669  1.0000
