data_image0
_chemical_formula_structural       Nb2MgF6
_chemical_formula_sum              "Nb2 Mg1 F6"
_cell_length_a       5.432483330291783
_cell_length_b       5.432483978098246
_cell_length_c       5.4324831114360785
_cell_angle_alpha    59.999999781919676
_cell_angle_beta     60.00000201588293
_cell_angle_gamma    60.00000028079883

_space_group_name_H-M_alt    "P 1"
_space_group_IT_number       1

loop_
  _space_group_symop_operation_xyz
  'x, y, z'

loop_
  _atom_site_type_symbol
  _atom_site_label
  _atom_site_symmetry_multiplicity
  _atom_site_fract_x
  _atom_site_fract_y
  _atom_site_fract_z
  _atom_site_occupancy
  Nb  Nb1       1.0  0.2500009072373425  0.24999918174539112  0.25000003924381314  1.0000
  Nb  Nb2       1.0  0.7499997913717037  0.7500002911978987  0.7499995343547726  1.0000
  Mg  Mg1       1.0  5.513531897690605e-08  6.7634477179372084e-09  2.059242438156225e-08  1.0000
  F   F1        1.0  0.24886229182384617  0.24886230543947704  0.7511377325504839  1.0000
  F   F2        1.0  0.7511373936350426  0.7511380580250162  0.24886241225827746  1.0000
  F   F3        1.0  0.7511374924678257  0.24886222513902925  0.24886242046577203  1.0000
  F   F4        1.0  0.2488623273133166  0.7511378565149635  0.7511375937606731  1.0000
  F   F5        1.0  0.24886220429174347  0.7511377560874727  0.24886246154456124  1.0000
  F   F6        1.0  0.7511375229746513  0.24886230978511736  0.7511378534943247  1.0000
