data_image0
_chemical_formula_structural       Nb2MnTe6
_chemical_formula_sum              "Nb2 Mn1 Te6"
_cell_length_a       6.8349320519678995
_cell_length_b       6.834931919551491
_cell_length_c       6.834932061765466
_cell_angle_alpha    59.99999972399208
_cell_angle_beta     59.99999998291756
_cell_angle_gamma    59.999999860598955

_space_group_name_H-M_alt    "P 1"
_space_group_IT_number       1

loop_
  _space_group_symop_operation_xyz
  'x, y, z'

loop_
  _atom_site_type_symbol
  _atom_site_label
  _atom_site_symmetry_multiplicity
  _atom_site_fract_x
  _atom_site_fract_y
  _atom_site_fract_z
  _atom_site_occupancy
  Nb  Nb1       1.0  0.24999997729134907  0.24999997993664969  0.25000002209311656  1.0000
  Nb  Nb2       1.0  0.7499999665142434  0.7500000132774545  0.7499999419980271  1.0000
  Mn  Mn1       1.0  0.9999999916554279  0.9999999946243288  0.9999999966186153  1.0000
  Te  Te1       1.0  0.2556150663311119  0.255615046353229  0.744384944254578  1.0000
  Te  Te2       1.0  0.7443850097257267  0.7443849809067931  0.2556150010631666  1.0000
  Te  Te3       1.0  0.7443849198262652  0.25561503447933004  0.25561508967437546  1.0000
  Te  Te4       1.0  0.2556150537914178  0.7443849605266651  0.744384965419058  1.0000
  Te  Te5       1.0  0.255615037098347  0.7443849493388737  0.2556150823347784  1.0000
  Te  Te6       1.0  0.7443849795568529  0.25561503312388917  0.7443849662899467  1.0000
