data_image0
_chemical_formula_structural       Nb2MgCl6
_chemical_formula_sum              "Nb2 Mg1 Cl6"
_cell_length_a       6.490654166781166
_cell_length_b       6.490654204729186
_cell_length_c       6.490654089762555
_cell_angle_alpha    60.000000069461464
_cell_angle_beta     60.00000134236053
_cell_angle_gamma    59.99999957637865

_space_group_name_H-M_alt    "P 1"
_space_group_IT_number       1

loop_
  _space_group_symop_operation_xyz
  'x, y, z'

loop_
  _atom_site_type_symbol
  _atom_site_label
  _atom_site_symmetry_multiplicity
  _atom_site_fract_x
  _atom_site_fract_y
  _atom_site_fract_z
  _atom_site_occupancy
  Nb  Nb1       1.0  0.24999988420471003  0.2500000086553192  0.24999995811476772  1.0000
  Nb  Nb2       1.0  0.7500000084769114  0.7499997429255596  0.7500000983074898  1.0000
  Mg  Mg1       1.0  2.770891419574577e-08  3.962565452639185e-08  0.9999999832801602  1.0000
  Cl  Cl1       1.0  0.25613811513478013  0.25613822727784336  0.7438618250471336  1.0000
  Cl  Cl2       1.0  0.7438618989640412  0.7438618431952088  0.25613809595765935  1.0000
  Cl  Cl3       1.0  0.7438619054475679  0.2561381648930808  0.2561380951777487  1.0000
  Cl  Cl4       1.0  0.25613816637234466  0.7438618017984928  0.7438619474605522  1.0000
  Cl  Cl5       1.0  0.2561381826116478  0.7438619045252223  0.2561381229731664  1.0000
  Cl  Cl6       1.0  0.7438618123834678  0.2561382659554342  0.7438618808338185  1.0000
