data_image0
_chemical_formula_structural       Nb2MnSe6
_chemical_formula_sum              "Nb2 Mn1 Se6"
_cell_length_a       6.2965174667485355
_cell_length_b       6.296516872678372
_cell_length_c       6.2965170112087
_cell_angle_alpha    59.99999675471324
_cell_angle_beta     59.99999913312937
_cell_angle_gamma    59.99999645959978

_space_group_name_H-M_alt    "P 1"
_space_group_IT_number       1

loop_
  _space_group_symop_operation_xyz
  'x, y, z'

loop_
  _atom_site_type_symbol
  _atom_site_label
  _atom_site_symmetry_multiplicity
  _atom_site_fract_x
  _atom_site_fract_y
  _atom_site_fract_z
  _atom_site_occupancy
  Nb  Nb1       1.0  0.2500006455903102  0.25000023977525015  0.24999990761600213  1.0000
  Nb  Nb2       1.0  0.7499999496517794  0.7500006454114054  0.7499995479364726  1.0000
  Mn  Mn1       1.0  0.9999998910419546  7.780461763384426e-09  0.9999999537098375  1.0000
  Se  Se1       1.0  0.26936513499221215  0.2693649094101019  0.7306347085601407  1.0000
  Se  Se2       1.0  0.7306350359428732  0.7306347289578622  0.2693649012261584  1.0000
  Se  Se3       1.0  0.7306349004739768  0.26936498400766845  0.26936526645465075  1.0000
  Se  Se4       1.0  0.2693654653438792  0.7306351095171894  0.7306347409335303  1.0000
  Se  Se5       1.0  0.26936465619695255  0.7306345840373808  0.26936552605177694  1.0000
  Se  Se6       1.0  0.730634347232554  0.26936482675212253  0.7306354435474771  1.0000
