data_image0
_chemical_formula_structural       Nb2MnBr6
_chemical_formula_sum              "Nb2 Mn1 Br6"
_cell_length_a       6.624238583252224
_cell_length_b       6.624238362641972
_cell_length_c       6.624238518241426
_cell_angle_alpha    60.00000168668089
_cell_angle_beta     60.000000579673745
_cell_angle_gamma    60.000001758005425

_space_group_name_H-M_alt    "P 1"
_space_group_IT_number       1

loop_
  _space_group_symop_operation_xyz
  'x, y, z'

loop_
  _atom_site_type_symbol
  _atom_site_label
  _atom_site_symmetry_multiplicity
  _atom_site_fract_x
  _atom_site_fract_y
  _atom_site_fract_z
  _atom_site_occupancy
  Nb  Nb1       1.0  0.24999990041721035  0.25000001184902404  0.250000046117106  1.0000
  Nb  Nb2       1.0  0.7500000352677719  0.7499999486495289  0.750000044984168  1.0000
  Mn  Mn1       1.0  0.999999995386861  0.999999998151116  6.2502264014172465e-09  1.0000
  Br  Br1       1.0  0.2518262094352182  0.25182623097213686  0.7481737837264143  1.0000
  Br  Br2       1.0  0.7481737712543041  0.7481737461663717  0.2518262222067431  1.0000
  Br  Br3       1.0  0.7481737926112205  0.251826313333256  0.2518261240136816  1.0000
  Br  Br4       1.0  0.2518262445265357  0.7481737507028016  0.7481737770352214  1.0000
  Br  Br5       1.0  0.2518262860616086  0.7481737373185534  0.25182620981148646  1.0000
  Br  Br6       1.0  0.7481737639307369  0.2518262620065655  0.7481737881171416  1.0000
