data_image0
_chemical_formula_structural       Nb2NiSe6
_chemical_formula_sum              "Nb2 Ni1 Se6"
_cell_length_a       6.303140651479614
_cell_length_b       6.303140691459766
_cell_length_c       6.303140662773111
_cell_angle_alpha    59.99999748918929
_cell_angle_beta     59.99999823711684
_cell_angle_gamma    59.999998248684136

_space_group_name_H-M_alt    "P 1"
_space_group_IT_number       1

loop_
  _space_group_symop_operation_xyz
  'x, y, z'

loop_
  _atom_site_type_symbol
  _atom_site_label
  _atom_site_symmetry_multiplicity
  _atom_site_fract_x
  _atom_site_fract_y
  _atom_site_fract_z
  _atom_site_occupancy
  Nb  Nb1       1.0  0.24999990630709512  0.25000015209759147  0.24999977194932163  1.0000
  Nb  Nb2       1.0  0.7499998525203452  0.7499995663662908  0.7500008125017248  1.0000
  Ni  Ni1       1.0  2.2926273620195754e-08  4.663370163767415e-08  0.999999925557244  1.0000
  Se  Se1       1.0  0.26221146567272335  0.2622115827820414  0.7377886047091798  1.0000
  Se  Se2       1.0  0.7377885014914494  0.7377884504593288  0.2622113596333329  1.0000
  Se  Se3       1.0  0.7377885846236589  0.26221182188174025  0.2622111948299238  1.0000
  Se  Se4       1.0  0.26221144883969916  0.7377883532038044  0.7377886019804781  1.0000
  Se  Se5       1.0  0.2622117323797793  0.7377884888468924  0.2622112745079148  1.0000
  Se  Se6       1.0  0.7377884852242648  0.26221154050833784  0.7377884602615132  1.0000
