data_image0
_chemical_formula_structural       Nb2NiO6
_chemical_formula_sum              "Nb2 Ni1 O6"
_cell_length_a       4.928671492857238
_cell_length_b       4.928671585989346
_cell_length_c       4.92867151563756
_cell_angle_alpha    59.99999953793843
_cell_angle_beta     59.999999732762845
_cell_angle_gamma    59.99999971765189

_space_group_name_H-M_alt    "P 1"
_space_group_IT_number       1

loop_
  _space_group_symop_operation_xyz
  'x, y, z'

loop_
  _atom_site_type_symbol
  _atom_site_label
  _atom_site_symmetry_multiplicity
  _atom_site_fract_x
  _atom_site_fract_y
  _atom_site_fract_z
  _atom_site_occupancy
  Nb  Nb1       1.0  0.24999994722094632  0.2500000608977675  0.24999968194460934  1.0000
  Nb  Nb2       1.0  0.749999973311666  0.7500001180848761  0.7499999273675093  1.0000
  Ni  Ni1       1.0  0.9999999850903653  4.4728903985442136e-08  0.9999999810324764  1.0000
  O   O1        1.0  0.25392872282815926  0.253928595432866  0.746071410755352  1.0000
  O   O2        1.0  0.7460713319357508  0.746071342510679  0.2539287470230791  1.0000
  O   O3        1.0  0.7460713865792293  0.2539286483348827  0.25392862765478563  1.0000
  O   O4        1.0  0.25392856003723613  0.7460712274851854  0.7460715868538865  1.0000
  O   O5        1.0  0.2539286214102607  0.7460713964907032  0.2539287122406824  1.0000
  O   O6        1.0  0.7460714411860484  0.253928581211868  0.746071350728985  1.0000
