data_image0
_chemical_formula_structural       Nb2NiS6
_chemical_formula_sum              "Nb2 Ni1 S6"
_cell_length_a       5.932673490749671
_cell_length_b       5.932673892239049
_cell_length_c       5.932673390496955
_cell_angle_alpha    59.99999827633577
_cell_angle_beta     59.99999909570287
_cell_angle_gamma    59.99999979483928

_space_group_name_H-M_alt    "P 1"
_space_group_IT_number       1

loop_
  _space_group_symop_operation_xyz
  'x, y, z'

loop_
  _atom_site_type_symbol
  _atom_site_label
  _atom_site_symmetry_multiplicity
  _atom_site_fract_x
  _atom_site_fract_y
  _atom_site_fract_z
  _atom_site_occupancy
  Nb  Nb1       1.0  0.24999968468945571  0.24999964105023945  0.25000073622005026  1.0000
  Nb  Nb2       1.0  0.7500006848248859  0.7500001968894296  0.7499989410420177  1.0000
  Ni  Ni1       1.0  0.9999999709634628  0.9999999236169784  0.9999998723526432  1.0000
  S   S1        1.0  0.25876680740050506  0.2587669552298728  0.7412330479020592  1.0000
  S   S2        1.0  0.7412331197208937  0.741233082957184  0.2587671162038047  1.0000
  S   S3        1.0  0.7412330378049906  0.25876666934412584  0.2587671478455483  1.0000
  S   S4        1.0  0.2587667538787406  0.7412333605853103  0.7412330072000862  1.0000
  S   S5        1.0  0.25876654162628315  0.7412333413580516  0.2587671195720728  1.0000
  S   S6        1.0  0.7412333850598952  0.25876685578828074  0.7412330293238261  1.0000
