data_image0
_chemical_formula_structural       Nb2NiF6
_chemical_formula_sum              "Nb2 Ni1 F6"
_cell_length_a       5.4272868541248025
_cell_length_b       5.427286978689255
_cell_length_c       5.4272864130441345
_cell_angle_alpha    60.00000305204557
_cell_angle_beta     60.000003446252755
_cell_angle_gamma    60.000001432916555

_space_group_name_H-M_alt    "P 1"
_space_group_IT_number       1

loop_
  _space_group_symop_operation_xyz
  'x, y, z'

loop_
  _atom_site_type_symbol
  _atom_site_label
  _atom_site_symmetry_multiplicity
  _atom_site_fract_x
  _atom_site_fract_y
  _atom_site_fract_z
  _atom_site_occupancy
  Nb  Nb1       1.0  0.25000140854851854  0.2499996282855569  0.2499995879330372  1.0000
  Nb  Nb2       1.0  0.7500003146747717  0.7500001372935112  0.7499984052981189  1.0000
  Ni  Ni1       1.0  8.145297531098648e-09  0.9999999819468574  0.9999999773158014  1.0000
  F   F1        1.0  0.2511545921354229  0.25115491290488157  0.7488455387280385  1.0000
  F   F2        1.0  0.7488448528219209  0.7488455025873397  0.25115528257726816  1.0000
  F   F3        1.0  0.7488445904717557  0.2511544417007585  0.25115523583606736  1.0000
  F   F4        1.0  0.25115501832089887  0.7488453035685391  0.7488451919310114  1.0000
  F   F5        1.0  0.2511543165306942  0.7488451763404556  0.251155260946673  1.0000
  F   F6        1.0  0.7488449106021028  0.2511549096819149  0.7488454710251733  1.0000
