data_image0
_chemical_formula_structural       Nb2NiBr6
_chemical_formula_sum              "Nb2 Ni1 Br6"
_cell_length_a       6.604564800356917
_cell_length_b       6.604564989453461
_cell_length_c       6.604564843468945
_cell_angle_alpha    59.99999950292585
_cell_angle_beta     59.99999916339282
_cell_angle_gamma    60.00000060156555

_space_group_name_H-M_alt    "P 1"
_space_group_IT_number       1

loop_
  _space_group_symop_operation_xyz
  'x, y, z'

loop_
  _atom_site_type_symbol
  _atom_site_label
  _atom_site_symmetry_multiplicity
  _atom_site_fract_x
  _atom_site_fract_y
  _atom_site_fract_z
  _atom_site_occupancy
  Nb  Nb1       1.0  0.2500000609640319  0.24999997075412006  0.24999988348231084  1.0000
  Nb  Nb2       1.0  0.7499998616373684  0.7500000420697547  0.7500000565619797  1.0000
  Ni  Ni1       1.0  2.940356713047297e-08  1.6689522813891565e-08  0.9999999951227063  1.0000
  Br  Br1       1.0  0.25307304602876995  0.2530730309327602  0.7469269650282605  1.0000
  Br  Br2       1.0  0.7469269863482345  0.7469269095698482  0.2530730607620576  1.0000
  Br  Br3       1.0  0.7469269626611067  0.2530730440980442  0.25307307853029554  1.0000
  Br  Br4       1.0  0.25307303499453726  0.7469270058136576  0.746926973508536  1.0000
  Br  Br5       1.0  0.2530730506942183  0.7469269837158359  0.2530730139858401  1.0000
  Br  Br6       1.0  0.7469269797041451  0.2530729994377757  0.7469269672426281  1.0000
