data_image0
_chemical_formula_structural       Nb2NiCl6
_chemical_formula_sum              "Nb2 Ni1 Cl6"
_cell_length_a       6.461698087962697
_cell_length_b       6.4616980473905175
_cell_length_c       6.461698022281422
_cell_angle_alpha    59.99999904243208
_cell_angle_beta     59.999999276814584
_cell_angle_gamma    59.99999841293793

_space_group_name_H-M_alt    "P 1"
_space_group_IT_number       1

loop_
  _space_group_symop_operation_xyz
  'x, y, z'

loop_
  _atom_site_type_symbol
  _atom_site_label
  _atom_site_symmetry_multiplicity
  _atom_site_fract_x
  _atom_site_fract_y
  _atom_site_fract_z
  _atom_site_occupancy
  Nb  Nb1       1.0  0.24999966285181277  0.24999998535831938  0.25000018559289816  1.0000
  Nb  Nb2       1.0  0.7500004842340925  0.7499998328744847  0.7499995842371395  1.0000
  Ni  Ni1       1.0  5.2525774661005736e-09  5.686174589831152e-09  5.1791114658973276e-08  1.0000
  Cl  Cl1       1.0  0.25165352377409533  0.25165368770605867  0.7483464517295428  1.0000
  Cl  Cl2       1.0  0.7483463963047795  0.7483464148355006  0.2516536593214505  1.0000
  Cl  Cl3       1.0  0.7483463883495491  0.2516535748599805  0.2516536969155972  1.0000
  Cl  Cl4       1.0  0.25165355451122484  0.7483463950041592  0.7483464319412175  1.0000
  Cl  Cl5       1.0  0.2516534479510643  0.748346414294358  0.2516537287265351  1.0000
  Cl  Cl6       1.0  0.74834654319251  0.25165367877024303  0.7483462168910547  1.0000
