data_image0
_chemical_formula_structural       Nb2NiI6
_chemical_formula_sum              "Nb2 Ni1 I6"
_cell_length_a       7.300771933926061
_cell_length_b       7.300771915031534
_cell_length_c       7.300771897736844
_cell_angle_alpha    59.9999997380061
_cell_angle_beta     60.000000096678136
_cell_angle_gamma    60.00000055188338

_space_group_name_H-M_alt    "P 1"
_space_group_IT_number       1

loop_
  _space_group_symop_operation_xyz
  'x, y, z'

loop_
  _atom_site_type_symbol
  _atom_site_label
  _atom_site_symmetry_multiplicity
  _atom_site_fract_x
  _atom_site_fract_y
  _atom_site_fract_z
  _atom_site_occupancy
  Nb  Nb1       1.0  0.2500000233567124  0.2499999187476522  0.2500000844910521  1.0000
  Nb  Nb2       1.0  0.7500000780548657  0.7499999458067076  0.7500000300545616  1.0000
  Ni  Ni1       1.0  2.6536600768506623e-08  0.9999999630937833  6.5545262282374416e-09  1.0000
  I   I1        1.0  0.25123063779124627  0.25123074935478734  0.7487692963749474  1.0000
  I   I2        1.0  0.7487693630493188  0.748769274567327  0.2512306942617409  1.0000
  I   I3        1.0  0.7487692746905736  0.2512306754084137  0.2512307234745902  1.0000
  I   I4        1.0  0.2512306778380936  0.7487693938076937  0.748769250864714  1.0000
  I   I5        1.0  0.25123070189407987  0.7487693368864191  0.25123063153666464  1.0000
  I   I6        1.0  0.7487692087615485  0.25123074407257523  0.7487692880120883  1.0000
