data_image0
_chemical_formula_structural       Nb2OsSe6
_chemical_formula_sum              "Nb2 Os1 Se6"
_cell_length_a       6.393981306093607
_cell_length_b       6.393981419013049
_cell_length_c       6.393981341254158
_cell_angle_alpha    60.00000288476792
_cell_angle_beta     59.99999952045385
_cell_angle_gamma    59.99999956463888

_space_group_name_H-M_alt    "P 1"
_space_group_IT_number       1

loop_
  _space_group_symop_operation_xyz
  'x, y, z'

loop_
  _atom_site_type_symbol
  _atom_site_label
  _atom_site_symmetry_multiplicity
  _atom_site_fract_x
  _atom_site_fract_y
  _atom_site_fract_z
  _atom_site_occupancy
  Nb  Nb1       1.0  0.25000046323792974  0.2500002179118428  0.24999929279394267  1.0000
  Nb  Nb2       1.0  0.7499999894765473  0.7500003089518583  0.749999367096769  1.0000
  Os  Os1       1.0  0.9999999425204714  1.5323724780525684e-08  1.0553232456891076e-07  1.0000
  Se  Se1       1.0  0.2714414901999659  0.27144150609990964  0.7285587876506711  1.0000
  Se  Se2       1.0  0.7285585553914383  0.7285583675902351  0.2714417411473334  1.0000
  Se  Se3       1.0  0.7285582690299437  0.27144128937245077  0.2714418905231317  1.0000
  Se  Se4       1.0  0.27144168457242246  0.7285583889402452  0.7285584863676347  1.0000
  Se  Se5       1.0  0.2714413448904228  0.7285582797887051  0.27144172935969635  1.0000
  Se  Se6       1.0  0.7285582338070287  0.27144161305608966  0.7285586166755575  1.0000
