data_image0
_chemical_formula_structural       Nb2OsO6
_chemical_formula_sum              "Nb2 Os1 O6"
_cell_length_a       5.049097903117641
_cell_length_b       5.049098101388826
_cell_length_c       5.049098038011324
_cell_angle_alpha    59.999999961003624
_cell_angle_beta     60.00000049545496
_cell_angle_gamma    60.000000640503444

_space_group_name_H-M_alt    "P 1"
_space_group_IT_number       1

loop_
  _space_group_symop_operation_xyz
  'x, y, z'

loop_
  _atom_site_type_symbol
  _atom_site_label
  _atom_site_symmetry_multiplicity
  _atom_site_fract_x
  _atom_site_fract_y
  _atom_site_fract_z
  _atom_site_occupancy
  Nb  Nb1       1.0  0.24999997872617574  0.24999990296916974  0.25000007694135556  1.0000
  Nb  Nb2       1.0  0.7500001038150029  0.7499999126638394  0.7499998252864193  1.0000
  Os  Os1       1.0  0.9999999822355501  1.2128352967719286e-08  0.9999999929152894  1.0000
  O   O1        1.0  0.26518954735473893  0.26518955846724607  0.7348104572589483  1.0000
  O   O2        1.0  0.734810423514475  0.7348105167125106  0.2651896998030249  1.0000
  O   O3        1.0  0.7348104961553469  0.26518959205012044  0.26518949569037115  1.0000
  O   O4        1.0  0.2651894322092068  0.734810473426956  0.7348105052645103  1.0000
  O   O5        1.0  0.2651895403022935  0.7348104588872924  0.26518950794394314  1.0000
  O   O6        1.0  0.7348104807647652  0.2651895823330784  0.7348104488852809  1.0000
