data_image0
_chemical_formula_structural       Nb2OsS6
_chemical_formula_sum              "Nb2 Os1 S6"
_cell_length_a       6.021123546475766
_cell_length_b       6.021123563693144
_cell_length_c       6.021123575425152
_cell_angle_alpha    59.9999993496771
_cell_angle_beta     59.999999993261916
_cell_angle_gamma    60.00000100522806

_space_group_name_H-M_alt    "P 1"
_space_group_IT_number       1

loop_
  _space_group_symop_operation_xyz
  'x, y, z'

loop_
  _atom_site_type_symbol
  _atom_site_label
  _atom_site_symmetry_multiplicity
  _atom_site_fract_x
  _atom_site_fract_y
  _atom_site_fract_z
  _atom_site_occupancy
  Nb  Nb1       1.0  0.24999986809653363  0.2500000797409501  0.2500000821098676  1.0000
  Nb  Nb2       1.0  0.7500001471723151  0.7499999625879419  0.7499997660944071  1.0000
  Os  Os1       1.0  0.9999999994183455  3.0511204077300505e-08  1.326915813428261e-08  1.0000
  S   S1        1.0  0.27325808947675295  0.27325816948131826  0.7267418836719564  1.0000
  S   S2        1.0  0.726742007773455  0.7267417304619532  0.2732582222667338  1.0000
  S   S3        1.0  0.7267417357617028  0.273258120765389  0.2732581654176036  1.0000
  S   S4        1.0  0.2732581142716335  0.7267418707114929  0.7267418722105925  1.0000
  S   S5        1.0  0.27325812162808544  0.726741863813918  0.2732581698455107  1.0000
  S   S6        1.0  0.7267419124692641  0.27325819682169555  0.7267418291947512  1.0000
