data_image0
_chemical_formula_structural       Nb2PO6
_chemical_formula_sum              "Nb2 P1 O6"
_cell_length_a       4.852296706969754
_cell_length_b       4.852296764655275
_cell_length_c       4.852296653479291
_cell_angle_alpha    60.00000014521087
_cell_angle_beta     59.99999956176081
_cell_angle_gamma    60.00000045561785

_space_group_name_H-M_alt    "P 1"
_space_group_IT_number       1

loop_
  _space_group_symop_operation_xyz
  'x, y, z'

loop_
  _atom_site_type_symbol
  _atom_site_label
  _atom_site_symmetry_multiplicity
  _atom_site_fract_x
  _atom_site_fract_y
  _atom_site_fract_z
  _atom_site_occupancy
  Nb  Nb1       1.0  0.2500000862998455  0.2499999245426215  0.2499999699063829  1.0000
  Nb  Nb2       1.0  0.7499998990081013  0.7500000108887377  0.7500000617131407  1.0000
  P   P1        1.0  6.7060380710834445e-09  2.2716466622805657e-08  1.208018448718258e-08  1.0000
  O   O1        1.0  0.24516001353238404  0.24516002789720764  0.7548399388494831  1.0000
  O   O2        1.0  0.7548399945373157  0.7548400034481222  0.24515999221458287  1.0000
  O   O3        1.0  0.7548399776899386  0.24516003291706934  0.24516003343276035  1.0000
  O   O4        1.0  0.2451600080015333  0.7548399656155861  0.7548399808705106  1.0000
  O   O5        1.0  0.24516000963347304  0.754839980229665  0.2451600465981643  1.0000
  O   O6        1.0  0.7548400099264291  0.2451600309232497  0.7548399733130785  1.0000
