data_image0
_chemical_formula_structural       Nb2PdBr6
_chemical_formula_sum              "Nb2 Pd1 Br6"
_cell_length_a       6.7242688216124895
_cell_length_b       6.724268820093424
_cell_length_c       6.724268816302706
_cell_angle_alpha    60.00000061283647
_cell_angle_beta     59.99999961155849
_cell_angle_gamma    60.000000366149486

_space_group_name_H-M_alt    "P 1"
_space_group_IT_number       1

loop_
  _space_group_symop_operation_xyz
  'x, y, z'

loop_
  _atom_site_type_symbol
  _atom_site_label
  _atom_site_symmetry_multiplicity
  _atom_site_fract_x
  _atom_site_fract_y
  _atom_site_fract_z
  _atom_site_occupancy
  Nb  Nb1       1.0  0.2500001533925416  0.2499999159873197  0.24999989007969162  1.0000
  Nb  Nb2       1.0  0.7499998738934521  0.7499999355640953  0.749999746146601  1.0000
  Pd  Pd1       1.0  0.9999999728370818  0.9999999836075814  1.7346702351287051e-07  1.0000
  Br  Br1       1.0  0.2561404144754362  0.2561403767271034  0.7438596707309119  1.0000
  Br  Br2       1.0  0.7438596062332619  0.743859669711974  0.25614040820154316  1.0000
  Br  Br3       1.0  0.7438596503166466  0.25614039544651485  0.2561404573645323  1.0000
  Br  Br4       1.0  0.2561404518481247  0.7438595817801232  0.7438596050360515  1.0000
  Br  Br5       1.0  0.25614028368650754  0.7438596287295258  0.2561404905775253  1.0000
  Br  Br6       1.0  0.7438595869638708  0.25614051242131  0.7438595729008457  1.0000
