data_image0
_chemical_formula_structural       Nb2PS6
_chemical_formula_sum              "Nb2 P1 S6"
_cell_length_a       6.177051489040995
_cell_length_b       6.177051443492696
_cell_length_c       6.177051050063823
_cell_angle_alpha    60.00000352077042
_cell_angle_beta     60.00000437285306
_cell_angle_gamma    59.999996336733126

_space_group_name_H-M_alt    "P 1"
_space_group_IT_number       1

loop_
  _space_group_symop_operation_xyz
  'x, y, z'

loop_
  _atom_site_type_symbol
  _atom_site_label
  _atom_site_symmetry_multiplicity
  _atom_site_fract_x
  _atom_site_fract_y
  _atom_site_fract_z
  _atom_site_occupancy
  Nb  Nb1       1.0  0.250000576600074  0.2500001795386038  0.249999475431529  1.0000
  Nb  Nb2       1.0  0.750000382217941  0.7499992200979446  0.7500006464993471  1.0000
  P   P1        1.0  0.9999999483938897  5.9482016941337666e-08  0.9999999831108828  1.0000
  S   S1        1.0  0.2492343854183056  0.2492358022388499  0.750765111757014  1.0000
  S   S2        1.0  0.7507651624819935  0.7507647513488553  0.2492348909661246  1.0000
  S   S3        1.0  0.7507647030494967  0.2492352305112981  0.2492347570074255  1.0000
  S   S4        1.0  0.24923499338073896  0.7507651803195615  0.7507648801965818  1.0000
  S   S5        1.0  0.24923515314818867  0.750764961977905  0.2492347642911843  1.0000
  S   S6        1.0  0.7507646693155017  0.24923465575943457  0.7507654622283342  1.0000
