data_image0
_chemical_formula_structural       Nb2PdCl6
_chemical_formula_sum              "Nb2 Pd1 Cl6"
_cell_length_a       6.519508258707438
_cell_length_b       6.5195082133644
_cell_length_c       6.519508185536748
_cell_angle_alpha    60.00000016872166
_cell_angle_beta     60.00000018199323
_cell_angle_gamma    60.000000739392355

_space_group_name_H-M_alt    "P 1"
_space_group_IT_number       1

loop_
  _space_group_symop_operation_xyz
  'x, y, z'

loop_
  _atom_site_type_symbol
  _atom_site_label
  _atom_site_symmetry_multiplicity
  _atom_site_fract_x
  _atom_site_fract_y
  _atom_site_fract_z
  _atom_site_occupancy
  Nb  Nb1       1.0  0.24999961659737988  0.25000005968357386  0.250000188738739  1.0000
  Nb  Nb2       1.0  0.7500001237685122  0.749999996828012  0.7500001231078717  1.0000
  Pd  Pd1       1.0  2.1468636051275757e-08  0.9999999887284917  5.638442307848245e-09  1.0000
  Cl  Cl1       1.0  0.25571273058622807  0.2557127312516561  0.7442872326404816  1.0000
  Cl  Cl2       1.0  0.7442873132198017  0.7442872332092795  0.2557126621382046  1.0000
  Cl  Cl3       1.0  0.7442874021990079  0.2557127463693144  0.25571270085060993  1.0000
  Cl  Cl4       1.0  0.25571267865679737  0.744287287599257  0.7442872112068397  1.0000
  Cl  Cl5       1.0  0.25571277323380404  0.744287245768509  0.25571267133491965  1.0000
  Cl  Cl6       1.0  0.7442873546571901  0.255712705542334  0.7442871879763303  1.0000
