data_image0
_chemical_formula_structural       Nb2PdI6
_chemical_formula_sum              "Nb2 Pd1 I6"
_cell_length_a       7.4520629640662115
_cell_length_b       7.452063032757256
_cell_length_c       7.452062989877944
_cell_angle_alpha    60.000000204317494
_cell_angle_beta     60.00000040096451
_cell_angle_gamma    59.99999942939335

_space_group_name_H-M_alt    "P 1"
_space_group_IT_number       1

loop_
  _space_group_symop_operation_xyz
  'x, y, z'

loop_
  _atom_site_type_symbol
  _atom_site_label
  _atom_site_symmetry_multiplicity
  _atom_site_fract_x
  _atom_site_fract_y
  _atom_site_fract_z
  _atom_site_occupancy
  Nb  Nb1       1.0  0.2499999942418507  0.24999997748678485  0.2500000184991071  1.0000
  Nb  Nb2       1.0  0.7500000270783288  0.7500001526890508  0.74999985342725  1.0000
  Pd  Pd1       1.0  0.9999999972447102  3.615695018896156e-08  0.9999999940344522  1.0000
  I   I1        1.0  0.2544884279958872  0.25448838694059955  0.7455115908827366  1.0000
  I   I2        1.0  0.7455115340081758  0.7455115493025037  0.2544884854988414  1.0000
  I   I3        1.0  0.7455115622977283  0.25448839227548514  0.2544884495400441  1.0000
  I   I4        1.0  0.254488449650326  0.7455115521851065  0.7455115575034857  1.0000
  I   I5        1.0  0.25448838909892046  0.7455115727858501  0.2544884722031144  1.0000
  I   I6        1.0  0.7455116227551408  0.2544883766052346  0.7455115820728461  1.0000
