data_image0
_chemical_formula_structural       Nb2PdF6
_chemical_formula_sum              "Nb2 Pd1 F6"
_cell_length_a       5.487474284970368
_cell_length_b       5.487474012965965
_cell_length_c       5.48747396584281
_cell_angle_alpha    60.00000303862835
_cell_angle_beta     59.99999840126665
_cell_angle_gamma    60.00000098568254

_space_group_name_H-M_alt    "P 1"
_space_group_IT_number       1

loop_
  _space_group_symop_operation_xyz
  'x, y, z'

loop_
  _atom_site_type_symbol
  _atom_site_label
  _atom_site_symmetry_multiplicity
  _atom_site_fract_x
  _atom_site_fract_y
  _atom_site_fract_z
  _atom_site_occupancy
  Nb  Nb1       1.0  0.2499999644233293  0.2500026823263496  0.24999839035809224  1.0000
  Nb  Nb2       1.0  0.7500010964249199  0.7500022217413735  0.7499962811986358  1.0000
  Pd  Pd1       1.0  0.9999999448046367  0.9999997678832526  1.7463569780577894e-07  1.0000
  F   F1        1.0  0.2666428928149166  0.2666423665370057  0.7333574934526594  1.0000
  F   F2        1.0  0.7333574922224184  0.7333567055975573  0.2666437650214281  1.0000
  F   F3        1.0  0.7333571059991046  0.2666415466594554  0.2666439433271731  1.0000
  F   F4        1.0  0.2666425974997342  0.7333560412670482  0.7333583980201794  1.0000
  F   F5        1.0  0.26664192771213585  0.733356440076619  0.26664385095369986  1.0000
  F   F6        1.0  0.7333570296535024  0.2666422057665698  0.7333576857517217  1.0000
