data_image0
_chemical_formula_structural       Nb2PtS6
_chemical_formula_sum              "Nb2 Pt1 S6"
_cell_length_a       6.176755890714822
_cell_length_b       6.176755851244711
_cell_length_c       6.1767557483269355
_cell_angle_alpha    60.000002878298474
_cell_angle_beta     60.00000192045938
_cell_angle_gamma    60.000000794020906

_space_group_name_H-M_alt    "P 1"
_space_group_IT_number       1

loop_
  _space_group_symop_operation_xyz
  'x, y, z'

loop_
  _atom_site_type_symbol
  _atom_site_label
  _atom_site_symmetry_multiplicity
  _atom_site_fract_x
  _atom_site_fract_y
  _atom_site_fract_z
  _atom_site_occupancy
  Nb  Nb1       1.0  0.24999983339757834  0.24999997655814005  0.25000011064642735  1.0000
  Nb  Nb2       1.0  0.750000022628309  0.750000145802735  0.7499998881845938  1.0000
  Pt  Pt1       1.0  0.9999999947319134  0.9999999821545419  0.9999999921290975  1.0000
  S   S1        1.0  0.2620550786262295  0.2620549094195246  0.7379450665761017  1.0000
  S   S2        1.0  0.7379451542371513  0.7379448619806804  0.26205503750152453  1.0000
  S   S3        1.0  0.7379449557679454  0.2620549213576544  0.2620549766942299  1.0000
  S   S4        1.0  0.26205495345411695  0.7379450582395576  0.7379450426359403  1.0000
  S   S5        1.0  0.2620549227254663  0.7379451786340974  0.26205495620693875  1.0000
  S   S6        1.0  0.7379450731673795  0.26205496157223296  0.7379449135797183  1.0000
