data_image0
_chemical_formula_structural       Nb2PdS6
_chemical_formula_sum              "Nb2 Pd1 S6"
_cell_length_a       6.144369644149206
_cell_length_b       6.14436963235827
_cell_length_c       6.1443695616956795
_cell_angle_alpha    59.9999985724789
_cell_angle_beta     60.00000027443168
_cell_angle_gamma    60.00000050906268

_space_group_name_H-M_alt    "P 1"
_space_group_IT_number       1

loop_
  _space_group_symop_operation_xyz
  'x, y, z'

loop_
  _atom_site_type_symbol
  _atom_site_label
  _atom_site_symmetry_multiplicity
  _atom_site_fract_x
  _atom_site_fract_y
  _atom_site_fract_z
  _atom_site_occupancy
  Nb  Nb1       1.0  0.24999986986809988  0.25000013823200834  0.2499999725457814  1.0000
  Nb  Nb2       1.0  0.749999994541452  0.7500000040803596  0.7499998653763549  1.0000
  Pd  Pd1       1.0  2.488666051650139e-08  0.9999999760806407  6.026374787496839e-09  1.0000
  S   S1        1.0  0.26889896666531404  0.2688989381164706  0.7311010237845251  1.0000
  S   S2        1.0  0.7311011783697654  0.7311009091904637  0.2688989905882204  1.0000
  S   S3        1.0  0.7311010436063936  0.2688989629917321  0.268898977179476  1.0000
  S   S4        1.0  0.268899007803208  0.7311010637103961  0.7311010528986349  1.0000
  S   S5        1.0  0.26889887377533944  0.7311010509613208  0.26889902215191036  1.0000
  S   S6        1.0  0.7311010527092064  0.2688989896937654  0.7311010617847431  1.0000
