data_image0
_chemical_formula_structural       Nb2PdO6
_chemical_formula_sum              "Nb2 Pd1 O6"
_cell_length_a       5.178973710159967
_cell_length_b       5.178973842835339
_cell_length_c       5.178973814419655
_cell_angle_alpha    60.00000421096258
_cell_angle_beta     60.00000314706964
_cell_angle_gamma    60.00000146827446

_space_group_name_H-M_alt    "P 1"
_space_group_IT_number       1

loop_
  _space_group_symop_operation_xyz
  'x, y, z'

loop_
  _atom_site_type_symbol
  _atom_site_label
  _atom_site_symmetry_multiplicity
  _atom_site_fract_x
  _atom_site_fract_y
  _atom_site_fract_z
  _atom_site_occupancy
  Nb  Nb1       1.0  0.25000019932870676  0.25000018326146467  0.250000708406118  1.0000
  Nb  Nb2       1.0  0.7499997056083644  0.7499992136492549  0.7499984335033416  1.0000
  Pd  Pd1       1.0  0.9999999703622549  0.9999999952703197  3.456167179886084e-08  1.0000
  O   O1        1.0  0.26036813738708786  0.2603667877842343  0.739632683292935  1.0000
  O   O2        1.0  0.7396314918064145  0.7396336236432239  0.260368211271972  1.0000
  O   O3        1.0  0.7396327842866699  0.2603677885585083  0.26036720770977434  1.0000
  O   O4        1.0  0.26036750932959796  0.7396323887496846  0.7396327495526106  1.0000
  O   O5        1.0  0.26036699926433365  0.7396316430270088  0.2603680057836936  1.0000
  O   O6        1.0  0.7396332018141982  0.2603684373227132  0.7396319477516822  1.0000
