data_image0
_chemical_formula_structural       Nb2RuO6
_chemical_formula_sum              "Nb2 Ru1 O6"
_cell_length_a       5.043209976978185
_cell_length_b       5.043210045526973
_cell_length_c       5.043210013827815
_cell_angle_alpha    59.99999927691066
_cell_angle_beta     59.99999972514897
_cell_angle_gamma    59.999999170340345

_space_group_name_H-M_alt    "P 1"
_space_group_IT_number       1

loop_
  _space_group_symop_operation_xyz
  'x, y, z'

loop_
  _atom_site_type_symbol
  _atom_site_label
  _atom_site_symmetry_multiplicity
  _atom_site_fract_x
  _atom_site_fract_y
  _atom_site_fract_z
  _atom_site_occupancy
  Nb  Nb1       1.0  0.2500001391839469  0.24999975230685545  0.25000006890778964  1.0000
  Nb  Nb2       1.0  0.749999990976879  0.7500000146133882  0.7499999737470548  1.0000
  Ru  Ru1       1.0  4.2137616280482956e-08  3.1570533591672715e-08  0.9999999809917016  1.0000
  O   O1        1.0  0.26454141457239366  0.26454136812239076  0.7354586555375952  1.0000
  O   O2        1.0  0.7354584384456997  0.735458804357793  0.26454132290864296  1.0000
  O   O3        1.0  0.735458583936234  0.2645414472639483  0.2645413636230253  1.0000
  O   O4        1.0  0.26454140248269925  0.7354586135051132  0.735458661481413  1.0000
  O   O5        1.0  0.2645412905697155  0.7354586062737688  0.2645414771775055  1.0000
  O   O6        1.0  0.7354586919882609  0.26454137678320944  0.7354585252618028  1.0000
