data_image0
_chemical_formula_structural       Nb2RhS6
_chemical_formula_sum              "Nb2 Rh1 S6"
_cell_length_a       6.078950807532562
_cell_length_b       6.078950526891068
_cell_length_c       6.078950955575484
_cell_angle_alpha    59.99999980925806
_cell_angle_beta     60.000000655182376
_cell_angle_gamma    60.00000164919347

_space_group_name_H-M_alt    "P 1"
_space_group_IT_number       1

loop_
  _space_group_symop_operation_xyz
  'x, y, z'

loop_
  _atom_site_type_symbol
  _atom_site_label
  _atom_site_symmetry_multiplicity
  _atom_site_fract_x
  _atom_site_fract_y
  _atom_site_fract_z
  _atom_site_occupancy
  Nb  Nb1       1.0  0.24999967736028486  0.25000011679782697  0.250000042646071  1.0000
  Nb  Nb2       1.0  0.7500002060022853  0.7499999172264019  0.7500000701149714  1.0000
  Rh  Rh1       1.0  1.6789421746691906e-08  0.999999949631731  1.5144402305043036e-08  1.0000
  S   S1        1.0  0.2698728589532861  0.2698728709953855  0.7301271727120364  1.0000
  S   S2        1.0  0.7301271360192568  0.7301271872056153  0.26987284254526306  1.0000
  S   S3        1.0  0.7301272726570139  0.26987288120899083  0.2698728139257026  1.0000
  S   S4        1.0  0.2698727622644674  0.7301270742407403  0.7301271702219758  1.0000
  S   S5        1.0  0.2698728583506022  0.7301271018703451  0.26987282593173145  1.0000
  S   S6        1.0  0.7301272310804389  0.26987288380034763  0.7301270385347156  1.0000
