data_image0
_chemical_formula_structural       Nb2RhO6
_chemical_formula_sum              "Nb2 Rh1 O6"
_cell_length_a       5.076243010618846
_cell_length_b       5.076243110423438
_cell_length_c       5.076243087067011
_cell_angle_alpha    59.99999871392122
_cell_angle_beta     59.99999911999822
_cell_angle_gamma    59.999998999773496

_space_group_name_H-M_alt    "P 1"
_space_group_IT_number       1

loop_
  _space_group_symop_operation_xyz
  'x, y, z'

loop_
  _atom_site_type_symbol
  _atom_site_label
  _atom_site_symmetry_multiplicity
  _atom_site_fract_x
  _atom_site_fract_y
  _atom_site_fract_z
  _atom_site_occupancy
  Nb  Nb1       1.0  0.24999986497321292  0.2500002510444094  0.24999983541827867  1.0000
  Nb  Nb2       1.0  0.7499998905027127  0.7500002826568324  0.7499999285948408  1.0000
  Rh  Rh1       1.0  2.0082154576268768e-08  0.999999980698404  2.32492506852484e-08  1.0000
  O   O1        1.0  0.2646226024258116  0.26462221300885497  0.7353776187698721  1.0000
  O   O2        1.0  0.7353776196784939  0.7353775486285637  0.26462241615862525  1.0000
  O   O3        1.0  0.7353776638913306  0.2646223463466072  0.2646224130854881  1.0000
  O   O4        1.0  0.2646223581287013  0.7353774900844945  0.7353777297974031  1.0000
  O   O5        1.0  0.264622330930136  0.7353775839380018  0.26462242943233155  1.0000
  O   O6        1.0  0.7353776337843956  0.2646223152232866  0.7353776299698223  1.0000
