data_image0
_chemical_formula_structural       Nb2ReS6
_chemical_formula_sum              "Nb2 Re1 S6"
_cell_length_a       6.062620458266297
_cell_length_b       6.0626209832637485
_cell_length_c       6.062620654798976
_cell_angle_alpha    60.00000273858256
_cell_angle_beta     60.000002269624225
_cell_angle_gamma    60.000001379599624

_space_group_name_H-M_alt    "P 1"
_space_group_IT_number       1

loop_
  _space_group_symop_operation_xyz
  'x, y, z'

loop_
  _atom_site_type_symbol
  _atom_site_label
  _atom_site_symmetry_multiplicity
  _atom_site_fract_x
  _atom_site_fract_y
  _atom_site_fract_z
  _atom_site_occupancy
  Nb  Nb1       1.0  0.2500002667765467  0.24999992406406416  0.24999983558669328  1.0000
  Nb  Nb2       1.0  0.7499997130505521  0.750000291372652  0.7500002675009143  1.0000
  Re  Re1       1.0  4.30174005784207e-08  8.080628703130062e-09  0.9999998721849805  1.0000
  S   S1        1.0  0.2714558426440108  0.2714555775011288  0.7285443045313136  1.0000
  S   S2        1.0  0.7285440734096438  0.7285444864237884  0.27145553837118197  1.0000
  S   S3        1.0  0.7285443106240244  0.27145571001816055  0.2714557081932287  1.0000
  S   S4        1.0  0.27145567036521395  0.7285440448226808  0.7285445190463338  1.0000
  S   S5        1.0  0.27145573034270365  0.7285443729567467  0.27145560415719494  1.0000
  S   S6        1.0  0.7285443304062224  0.2714555940006144  0.7285443963211337  1.0000
