data_image0
_chemical_formula_structural       Nb2RuS6
_chemical_formula_sum              "Nb2 Ru1 S6"
_cell_length_a       6.023269547478146
_cell_length_b       6.02326950161215
_cell_length_c       6.0232695386961215
_cell_angle_alpha    60.000000759088145
_cell_angle_beta     59.999999446172836
_cell_angle_gamma    60.000000960937676

_space_group_name_H-M_alt    "P 1"
_space_group_IT_number       1

loop_
  _space_group_symop_operation_xyz
  'x, y, z'

loop_
  _atom_site_type_symbol
  _atom_site_label
  _atom_site_symmetry_multiplicity
  _atom_site_fract_x
  _atom_site_fract_y
  _atom_site_fract_z
  _atom_site_occupancy
  Nb  Nb1       1.0  0.25000019547089813  0.24999980298336397  0.2499999102500591  1.0000
  Nb  Nb2       1.0  0.7499999000329359  0.7500001165578271  0.7500000056953923  1.0000
  Ru  Ru1       1.0  0.9999999606685082  1.5250166739026128e-07  0.9999999583569644  1.0000
  S   S1        1.0  0.2713037304519375  0.2713037254214873  0.7286961900079293  1.0000
  S   S2        1.0  0.7286962929176554  0.7286963242544594  0.27130369361681034  1.0000
  S   S3        1.0  0.7286963391905334  0.27130357811650785  0.2713038344231012  1.0000
  S   S4        1.0  0.2713037609814089  0.7286962641571743  0.7286963120687114  1.0000
  S   S5        1.0  0.2713036928587799  0.7286963618257444  0.27130367817075024  1.0000
  S   S6        1.0  0.7286961265276902  0.2713036614165793  0.7286964152953521  1.0000
