data_image0
_chemical_formula_structural       Nb2ReO6
_chemical_formula_sum              "Nb2 Re1 O6"
_cell_length_a       5.060212111499558
_cell_length_b       5.060211656421671
_cell_length_c       5.060211942135449
_cell_angle_alpha    60.00000077578156
_cell_angle_beta     60.00000167179892
_cell_angle_gamma    60.000000318982444

_space_group_name_H-M_alt    "P 1"
_space_group_IT_number       1

loop_
  _space_group_symop_operation_xyz
  'x, y, z'

loop_
  _atom_site_type_symbol
  _atom_site_label
  _atom_site_symmetry_multiplicity
  _atom_site_fract_x
  _atom_site_fract_y
  _atom_site_fract_z
  _atom_site_occupancy
  Nb  Nb1       1.0  0.2500003791012901  0.24999959387671428  0.24999990474174347  1.0000
  Nb  Nb2       1.0  0.7499998467047092  0.7500001273409246  0.7499995542639201  1.0000
  Re  Re1       1.0  1.6780229360716414e-08  0.9999999975796559  0.9999999513198193  1.0000
  O   O1        1.0  0.2653143344199577  0.26531433423511713  0.734685754683701  1.0000
  O   O2        1.0  0.7346855673925723  0.7346857839188192  0.26531445042647184  1.0000
  O   O3        1.0  0.7346856394164869  0.2653141909680009  0.2653144662942992  1.0000
  O   O4        1.0  0.2653144141577167  0.7346857868060318  0.7346856718627304  1.0000
  O   O5        1.0  0.2653142295313351  0.7346857713210075  0.26531442795893756  1.0000
  O   O6        1.0  0.7346855841839715  0.26531441944322337  0.7346858125615263  1.0000
