data_image0
_chemical_formula_structural       Nb2ReTe6
_chemical_formula_sum              "Nb2 Re1 Te6"
_cell_length_a       7.009637832533661
_cell_length_b       7.00963789364248
_cell_length_c       7.009637757450504
_cell_angle_alpha    60.000000062759945
_cell_angle_beta     60.0000003950444
_cell_angle_gamma    59.99999915557132

_space_group_name_H-M_alt    "P 1"
_space_group_IT_number       1

loop_
  _space_group_symop_operation_xyz
  'x, y, z'

loop_
  _atom_site_type_symbol
  _atom_site_label
  _atom_site_symmetry_multiplicity
  _atom_site_fract_x
  _atom_site_fract_y
  _atom_site_fract_z
  _atom_site_occupancy
  Nb  Nb1       1.0  0.2500000348077374  0.25000010897708713  0.24999993725686698  1.0000
  Nb  Nb2       1.0  0.7500000750259675  0.7500000543634011  0.7499999741660126  1.0000
  Re  Re1       1.0  2.450971033525966e-08  1.0483379146693913e-08  0.9999999539713104  1.0000
  Te  Te1       1.0  0.2609671099546368  0.260967093502811  0.7390329104109324  1.0000
  Te  Te2       1.0  0.7390328711439458  0.7390328234782669  0.26096712864171023  1.0000
  Te  Te3       1.0  0.7390328938708521  0.26096706651243434  0.2609670994419103  1.0000
  Te  Te4       1.0  0.260967040986144  0.7390328854132414  0.7390329609519063  1.0000
  Te  Te5       1.0  0.2609670403830078  0.739032911343824  0.2609671043808898  1.0000
  Te  Te6       1.0  0.7390329069700855  0.2609670475707712  0.7390329291511313  1.0000
