data_image0
_chemical_formula_structural       Nb2SBr6
_chemical_formula_sum              "Nb2 S1 Br6"
_cell_length_a       6.721123639756477
_cell_length_b       6.72112315796963
_cell_length_c       6.721123657551158
_cell_angle_alpha    59.999997581911124
_cell_angle_beta     59.99999977823417
_cell_angle_gamma    59.99999662698291

_space_group_name_H-M_alt    "P 1"
_space_group_IT_number       1

loop_
  _space_group_symop_operation_xyz
  'x, y, z'

loop_
  _atom_site_type_symbol
  _atom_site_label
  _atom_site_symmetry_multiplicity
  _atom_site_fract_x
  _atom_site_fract_y
  _atom_site_fract_z
  _atom_site_occupancy
  Nb  Nb1       1.0  0.2499999227801877  0.25000006428761984  0.250000045155709  1.0000
  Nb  Nb2       1.0  0.7500000967321795  0.7499997591715157  0.7500000542108096  1.0000
  S   S1        1.0  0.9999999979008849  0.9999999599108845  6.2156507328732994e-09  1.0000
  Br  Br1       1.0  0.26130091592896126  0.2613008236790361  0.7386990797890202  1.0000
  Br  Br2       1.0  0.7386990700863989  0.7386992548926526  0.2613008611586386  1.0000
  Br  Br3       1.0  0.7386991651612091  0.26130085661994656  0.26130085131822955  1.0000
  Br  Br4       1.0  0.2613008500604422  0.738699221951742  0.7386991122224452  1.0000
  Br  Br5       1.0  0.2613008068169603  0.7386991886890676  0.26130087252610784  1.0000
  Br  Br6       1.0  0.7386991690987281  0.26130087894922643  0.738699120597785  1.0000
