data_image0
_chemical_formula_structural       Nb2SnTe6
_chemical_formula_sum              "Nb2 Sn1 Te6"
_cell_length_a       7.181380826096351
_cell_length_b       7.181380737026353
_cell_length_c       7.18138075627053
_cell_angle_alpha    59.99999990933645
_cell_angle_beta     59.999999908137475
_cell_angle_gamma    59.9999992903131

_space_group_name_H-M_alt    "P 1"
_space_group_IT_number       1

loop_
  _space_group_symop_operation_xyz
  'x, y, z'

loop_
  _atom_site_type_symbol
  _atom_site_label
  _atom_site_symmetry_multiplicity
  _atom_site_fract_x
  _atom_site_fract_y
  _atom_site_fract_z
  _atom_site_occupancy
  Nb  Nb1       1.0  0.2499999991498102  0.25000001000673755  0.24999997122398526  1.0000
  Nb  Nb2       1.0  0.749999972277508  0.7499998884682909  0.7500002072998493  1.0000
  Sn  Sn1       1.0  2.0983615575326993e-08  2.3876227756713584e-08  0.9999999901024872  1.0000
  Te  Te1       1.0  0.27004547065260676  0.2700455177636693  0.7299544887532842  1.0000
  Te  Te2       1.0  0.7299545109237077  0.7299544949761634  0.2700454228676383  1.0000
  Te  Te3       1.0  0.7299545440134003  0.2700455270333889  0.2700454085592184  1.0000
  Te  Te4       1.0  0.27004545550904935  0.7299545283425649  0.7299545368251104  1.0000
  Te  Te5       1.0  0.2700455300172911  0.7299545276344712  0.27004542921936053  1.0000
  Te  Te6       1.0  0.729954497246487  0.27004547828358194  0.7299545465181123  1.0000
