data_image0
_chemical_formula_structural       Nb2SnSe6
_chemical_formula_sum              "Nb2 Sn1 Se6"
_cell_length_a       6.613145968308205
_cell_length_b       6.613145822466042
_cell_length_c       6.613145881650781
_cell_angle_alpha    60.000000500901166
_cell_angle_beta     60.00000116019204
_cell_angle_gamma    60.00000143624039

_space_group_name_H-M_alt    "P 1"
_space_group_IT_number       1

loop_
  _space_group_symop_operation_xyz
  'x, y, z'

loop_
  _atom_site_type_symbol
  _atom_site_label
  _atom_site_symmetry_multiplicity
  _atom_site_fract_x
  _atom_site_fract_y
  _atom_site_fract_z
  _atom_site_occupancy
  Nb  Nb1       1.0  0.2500000150422109  0.2499999945453137  0.24999992537751106  1.0000
  Nb  Nb2       1.0  0.750000016466294  0.7499999910438827  0.7499999591426499  1.0000
  Sn  Sn1       1.0  5.9278581204133385e-08  0.9999999740722073  9.030979696901843e-09  1.0000
  Se  Se1       1.0  0.2731663330376148  0.27316629099913864  0.7268336984382501  1.0000
  Se  Se2       1.0  0.7268336701464739  0.7268336538463821  0.2731663325142894  1.0000
  Se  Se3       1.0  0.7268336478886609  0.27316640396772224  0.27316628232859314  1.0000
  Se  Se4       1.0  0.27316633767431  0.7268336408850026  0.7268336862609491  1.0000
  Se  Se5       1.0  0.2731663171191441  0.7268336454401366  0.2731664224827268  1.0000
  Se  Se6       1.0  0.7268336050739532  0.27316639570861734  0.7268336749085342  1.0000
