data_image0
_chemical_formula_structural       Nb2SiTe6
_chemical_formula_sum              "Nb2 Si1 Te6"
_cell_length_a       6.971053541329053
_cell_length_b       6.971053491998445
_cell_length_c       6.971053443674279
_cell_angle_alpha    60.00000016153231
_cell_angle_beta     60.00000013449054
_cell_angle_gamma    60.00000007180379

_space_group_name_H-M_alt    "P 1"
_space_group_IT_number       1

loop_
  _space_group_symop_operation_xyz
  'x, y, z'

loop_
  _atom_site_type_symbol
  _atom_site_label
  _atom_site_symmetry_multiplicity
  _atom_site_fract_x
  _atom_site_fract_y
  _atom_site_fract_z
  _atom_site_occupancy
  Nb  Nb1       1.0  0.250000031130751  0.24999996587140513  0.25000004638999523  1.0000
  Nb  Nb2       1.0  0.7500000155547082  0.750000041680072  0.7499999927300597  1.0000
  Si  Si1       1.0  1.363605054383065e-08  8.784503482891846e-09  1.461078449287055e-08  1.0000
  Te  Te1       1.0  0.25641207737720173  0.25641206507704883  0.7435879217390633  1.0000
  Te  Te2       1.0  0.7435879079374099  0.7435879178778185  0.25641210441908713  1.0000
  Te  Te3       1.0  0.7435878871665831  0.2564120759759868  0.25641207993487947  1.0000
  Te  Te4       1.0  0.2564120620914243  0.7435879157633841  0.7435878953066678  1.0000
  Te  Te5       1.0  0.2564120810162268  0.7435879383719298  0.2564120527735232  1.0000
  Te  Te6       1.0  0.7435879253294748  0.256412070936448  0.74358788800868  1.0000
