data_image0
_chemical_formula_structural       Nb2SF6
_chemical_formula_sum              "Nb2 S1 F6"
_cell_length_a       5.598563149322802
_cell_length_b       5.598566190739493
_cell_length_c       5.598569952858879
_cell_angle_alpha    59.9999797127801
_cell_angle_beta     59.99996608968369
_cell_angle_gamma    59.999946394047534

_space_group_name_H-M_alt    "P 1"
_space_group_IT_number       1

loop_
  _space_group_symop_operation_xyz
  'x, y, z'

loop_
  _atom_site_type_symbol
  _atom_site_label
  _atom_site_symmetry_multiplicity
  _atom_site_fract_x
  _atom_site_fract_y
  _atom_site_fract_z
  _atom_site_occupancy
  Nb  Nb1       1.0  0.24999580409098004  0.24999762864397168  0.2500059665735538  1.0000
  Nb  Nb2       1.0  0.7500066434378626  0.7500025988886768  0.7499973939772239  1.0000
  S   S1        1.0  0.9999996692714763  2.1877816828407683e-09  0.9999995569724152  1.0000
  F   F1        1.0  0.25670473972577046  0.2567076589821042  0.7432924800481329  1.0000
  F   F2        1.0  0.7432946010551077  0.7432928179391932  0.25670582895590344  1.0000
  F   F3        1.0  0.7432971054608393  0.25670439331943073  0.25670802169844786  1.0000
  F   F4        1.0  0.2567015367988697  0.7432961929824948  0.7432911195131214  1.0000
  F   F5        1.0  0.25670271480176376  0.7432949053358082  0.25670959137047517  1.0000
  F   F6        1.0  0.7432971372792407  0.25670381493826533  0.7432901083603854  1.0000
