data_image0
_chemical_formula_structural       Nb2SiSe6
_chemical_formula_sum              "Nb2 Si1 Se6"
_cell_length_a       6.444012309344108
_cell_length_b       6.44401209246886
_cell_length_c       6.444012253060823
_cell_angle_alpha    59.99999936709995
_cell_angle_beta     60.00000110089671
_cell_angle_gamma    59.99999880938535

_space_group_name_H-M_alt    "P 1"
_space_group_IT_number       1

loop_
  _space_group_symop_operation_xyz
  'x, y, z'

loop_
  _atom_site_type_symbol
  _atom_site_label
  _atom_site_symmetry_multiplicity
  _atom_site_fract_x
  _atom_site_fract_y
  _atom_site_fract_z
  _atom_site_occupancy
  Nb  Nb1       1.0  0.25000002563644724  0.2500001404945797  0.24999984953654092  1.0000
  Nb  Nb2       1.0  0.74999999542947  0.7500000584703393  0.7500000222524277  1.0000
  Si  Si1       1.0  0.9999999875654192  0.999999994298219  2.3034634767646796e-08  1.0000
  Se  Se1       1.0  0.2542519727858389  0.2542519316170517  0.7457480414925749  1.0000
  Se  Se2       1.0  0.7457480826740632  0.7457480297736526  0.2542518729170366  1.0000
  Se  Se3       1.0  0.7457480396881371  0.25425187392900694  0.2542520109079481  1.0000
  Se  Se4       1.0  0.25425197026941715  0.745748030443886  0.7457480727006864  1.0000
  Se  Se5       1.0  0.2542519243438567  0.7457480593939245  0.2542519735428391  1.0000
  Se  Se6       1.0  0.7457480001088336  0.25425188109024954  0.7457481347625864  1.0000
