data_image0
_chemical_formula_structural       Nb2SiO6
_chemical_formula_sum              "Nb2 Si1 O6"
_cell_length_a       4.847449536338335
_cell_length_b       4.847449616666247
_cell_length_c       4.84744950266199
_cell_angle_alpha    60.00000078989887
_cell_angle_beta     60.00000006796591
_cell_angle_gamma    59.99999989983452

_space_group_name_H-M_alt    "P 1"
_space_group_IT_number       1

loop_
  _space_group_symop_operation_xyz
  'x, y, z'

loop_
  _atom_site_type_symbol
  _atom_site_label
  _atom_site_symmetry_multiplicity
  _atom_site_fract_x
  _atom_site_fract_y
  _atom_site_fract_z
  _atom_site_occupancy
  Nb  Nb1       1.0  0.25000015290665634  0.2499999128985198  0.2499999252807505  1.0000
  Nb  Nb2       1.0  0.7499999720492111  0.7500000267251985  0.7499999287992649  1.0000
  Si  Si1       1.0  0.9999999736278472  5.0531515079118694e-08  0.9999999734797352  1.0000
  O   O1        1.0  0.2503818637368372  0.2503818784627008  0.7496181486967762  1.0000
  O   O2        1.0  0.7496181579226698  0.7496181066393819  0.2503819178939435  1.0000
  O   O3        1.0  0.7496181340054109  0.2503818839652538  0.2503818513449652  1.0000
  O   O4        1.0  0.2503818411189207  0.7496181264025868  0.7496181639922479  1.0000
  O   O5        1.0  0.2503818337799443  0.7496181437158538  0.25038190111916947  1.0000
  O   O6        1.0  0.7496180959403981  0.25038187423171443  0.7496181702631037  1.0000
