data_image0
_chemical_formula_structural       Nb2SI6
_chemical_formula_sum              "Nb2 S1 I6"
_cell_length_a       7.533835941693022
_cell_length_b       7.533836045455243
_cell_length_c       7.533836100266292
_cell_angle_alpha    59.99999967132351
_cell_angle_beta     59.99999945877604
_cell_angle_gamma    59.99999951695074

_space_group_name_H-M_alt    "P 1"
_space_group_IT_number       1

loop_
  _space_group_symop_operation_xyz
  'x, y, z'

loop_
  _atom_site_type_symbol
  _atom_site_label
  _atom_site_symmetry_multiplicity
  _atom_site_fract_x
  _atom_site_fract_y
  _atom_site_fract_z
  _atom_site_occupancy
  Nb  Nb1       1.0  0.2500000656538186  0.24999984211014847  0.25000005020902716  1.0000
  Nb  Nb2       1.0  0.7499998697313754  0.7500000758032063  0.7500000328690153  1.0000
  S   S1        1.0  4.3627091025879315e-08  1.6256590206471788e-08  1.5187890875015906e-08  1.0000
  I   I1        1.0  0.2639099676837891  0.26390981079307074  0.7360900896223986  1.0000
  I   I2        1.0  0.7360900326452728  0.7360902111624629  0.26390985055943883  1.0000
  I   I3        1.0  0.7360900993215446  0.2639098672481631  0.26390989192096176  1.0000
  I   I4        1.0  0.2639098664676185  0.736090170963961  0.7360901144783665  1.0000
  I   I5        1.0  0.2639099023740683  0.7360901391985158  0.2639098323146643  1.0000
  I   I6        1.0  0.7360901379907778  0.2639098730030632  0.7360901378559898  1.0000
