data_image0
_chemical_formula_structural       Nb2SeO6
_chemical_formula_sum              "Nb2 Se1 O6"
_cell_length_a       5.135104885778107
_cell_length_b       5.135104711528625
_cell_length_c       5.135104988339233
_cell_angle_alpha    60.00000042492657
_cell_angle_beta     59.999998428557646
_cell_angle_gamma    59.99999974851398

_space_group_name_H-M_alt    "P 1"
_space_group_IT_number       1

loop_
  _space_group_symop_operation_xyz
  'x, y, z'

loop_
  _atom_site_type_symbol
  _atom_site_label
  _atom_site_symmetry_multiplicity
  _atom_site_fract_x
  _atom_site_fract_y
  _atom_site_fract_z
  _atom_site_occupancy
  Nb  Nb1       1.0  0.24999982563113715  0.25000010015786023  0.2500000153761464  1.0000
  Nb  Nb2       1.0  0.749999606453358  0.7500001883765355  0.7500001776083352  1.0000
  Se  Se1       1.0  7.999624069953318e-08  5.008591896625092e-08  3.622267283533419e-08  1.0000
  O   O1        1.0  0.24856385779228726  0.24856350006693334  0.7514363218835207  1.0000
  O   O2        1.0  0.7514362555721616  0.7514362017467356  0.24856374787351876  1.0000
  O   O3        1.0  0.7514364084344274  0.2485637191495604  0.2485636429811892  1.0000
  O   O4        1.0  0.24856387055380214  0.7514361806227285  0.7514362410898922  1.0000
  O   O5        1.0  0.24856373713925536  0.7514363046368827  0.24856368800132578  1.0000
  O   O6        1.0  0.7514363826240862  0.24856376924358686  0.7514361165750588  1.0000
