data_image0
_chemical_formula_structural       Nb2SO6
_chemical_formula_sum              "Nb2 S1 O6"
_cell_length_a       4.916702323026901
_cell_length_b       4.9167022416343995
_cell_length_c       4.916702280036569
_cell_angle_alpha    60.00000049705058
_cell_angle_beta     60.00000023000751
_cell_angle_gamma    60.00000025254879

_space_group_name_H-M_alt    "P 1"
_space_group_IT_number       1

loop_
  _space_group_symop_operation_xyz
  'x, y, z'

loop_
  _atom_site_type_symbol
  _atom_site_label
  _atom_site_symmetry_multiplicity
  _atom_site_fract_x
  _atom_site_fract_y
  _atom_site_fract_z
  _atom_site_occupancy
  Nb  Nb1       1.0  0.2500000589995532  0.2500000084030923  0.2499998699839082  1.0000
  Nb  Nb2       1.0  0.7499998911907443  0.7499999878444519  0.750000113230535  1.0000
  S   S1        1.0  1.9476078966600244e-08  4.981976806219549e-09  0.9999999633643692  1.0000
  O   O1        1.0  0.24336985526132504  0.24336989569953216  0.7566301135893098  1.0000
  O   O2        1.0  0.756630134023592  0.7566301030390012  0.2433699179843705  1.0000
  O   O3        1.0  0.7566301500422912  0.24336983754515368  0.24336989663187178  1.0000
  O   O4        1.0  0.24336987240691996  0.7566301462474487  0.7566301197309763  1.0000
  O   O5        1.0  0.24336987201062488  0.7566301342642237  0.2433698884143011  1.0000
  O   O6        1.0  0.7566301498687381  0.2433698794202407  0.7566301092197729  1.0000
