data_image0
_chemical_formula_structural       Nb2TiO6
_chemical_formula_sum              "Nb2 Ti1 O6"
_cell_length_a       4.962084790907798
_cell_length_b       4.962084909492401
_cell_length_c       4.962084804473742
_cell_angle_alpha    60.000000816758146
_cell_angle_beta     60.00000097902518
_cell_angle_gamma    59.99999974875955

_space_group_name_H-M_alt    "P 1"
_space_group_IT_number       1

loop_
  _space_group_symop_operation_xyz
  'x, y, z'

loop_
  _atom_site_type_symbol
  _atom_site_label
  _atom_site_symmetry_multiplicity
  _atom_site_fract_x
  _atom_site_fract_y
  _atom_site_fract_z
  _atom_site_occupancy
  Nb  Nb1       1.0  0.2500000131625071  0.2499998774029275  0.25000016130216524  1.0000
  Nb  Nb2       1.0  0.7499999358429147  0.7500001455956704  0.7499998255969131  1.0000
  Ti  Ti1       1.0  0.9999999957693826  0.9999999777861446  0.999999978962443  1.0000
  O   O1        1.0  0.2633117284109414  0.26331167939633165  0.7366882229896858  1.0000
  O   O2        1.0  0.7366882770082496  0.7366883139837912  0.26331181097020484  1.0000
  O   O3        1.0  0.736688347554693  0.26331166856693233  0.2633117026303308  1.0000
  O   O4        1.0  0.26331166799542177  0.7366883223449843  0.7366883234676371  1.0000
  O   O5        1.0  0.26331175169132076  0.7366883631233179  0.2633116236764365  1.0000
  O   O6        1.0  0.7366882832736871  0.26331166727989735  0.7366883346780787  1.0000
