data_image0
_chemical_formula_structural       Nb2TiI6
_chemical_formula_sum              "Nb2 Ti1 I6"
_cell_length_a       7.578311022330638
_cell_length_b       7.578311030037152
_cell_length_c       7.578311011408281
_cell_angle_alpha    60.000000311720015
_cell_angle_beta     60.00000143864133
_cell_angle_gamma    59.999999713423826

_space_group_name_H-M_alt    "P 1"
_space_group_IT_number       1

loop_
  _space_group_symop_operation_xyz
  'x, y, z'

loop_
  _atom_site_type_symbol
  _atom_site_label
  _atom_site_symmetry_multiplicity
  _atom_site_fract_x
  _atom_site_fract_y
  _atom_site_fract_z
  _atom_site_occupancy
  Nb  Nb1       1.0  0.25000004487219285  0.24999997890628675  0.24999993368056506  1.0000
  Nb  Nb2       1.0  0.7500000249108197  0.7499999367188609  0.7500000036847598  1.0000
  Ti  Ti1       1.0  2.088539683222999e-08  0.9999999967677629  0.9999999806169785  1.0000
  I   I1        1.0  0.2534169458747265  0.2534169159114391  0.7465830852218811  1.0000
  I   I2        1.0  0.7465830253594954  0.7465830805196345  0.2534169362295239  1.0000
  I   I3        1.0  0.7465830697255893  0.2534169595228573  0.2534169029746043  1.0000
  I   I4        1.0  0.2534169219001761  0.7465831128657862  0.7465830993324596  1.0000
  I   I5        1.0  0.2534168574688719  0.7465830980086255  0.25341695928654373  1.0000
  I   I6        1.0  0.7465830874928917  0.2534169178158703  0.7465831012323704  1.0000
