data_image0
_chemical_formula_structural       Nb2TiBr6
_chemical_formula_sum              "Nb2 Ti1 Br6"
_cell_length_a       6.728786979879975
_cell_length_b       6.7287870265037695
_cell_length_c       6.728786846331102
_cell_angle_alpha    60.000000847660274
_cell_angle_beta     60.00000130812402
_cell_angle_gamma    60.000000077167606

_space_group_name_H-M_alt    "P 1"
_space_group_IT_number       1

loop_
  _space_group_symop_operation_xyz
  'x, y, z'

loop_
  _atom_site_type_symbol
  _atom_site_label
  _atom_site_symmetry_multiplicity
  _atom_site_fract_x
  _atom_site_fract_y
  _atom_site_fract_z
  _atom_site_occupancy
  Nb  Nb1       1.0  0.25000005312915136  0.24999984394723462  0.2500000372889361  1.0000
  Nb  Nb2       1.0  0.7500000788632329  0.750000005082518  0.7499998768685594  1.0000
  Ti  Ti1       1.0  0.9999999686082891  0.9999999963596864  0.9999999818483642  1.0000
  Br  Br1       1.0  0.2580228580398327  0.25802291054685816  0.7419771100174434  1.0000
  Br  Br2       1.0  0.7419771386572788  0.7419771641823604  0.2580227737994747  1.0000
  Br  Br3       1.0  0.7419770488713441  0.25802290752041895  0.2580228809865767  1.0000
  Br  Br4       1.0  0.2580226962042557  0.7419772836988474  0.7419772398173998  1.0000
  Br  Br5       1.0  0.2580229014018466  0.7419771322062297  0.2580228666066877  1.0000
  Br  Br6       1.0  0.7419772562094891  0.2580227532266615  0.7419772275733465  1.0000
