data_image0
_chemical_formula_structural       Nb2TiCl6
_chemical_formula_sum              "Nb2 Ti1 Cl6"
_cell_length_a       6.55260573265586
_cell_length_b       6.55260588718904
_cell_length_c       6.552605508231541
_cell_angle_alpha    59.99999954019115
_cell_angle_beta     60.000000607624685
_cell_angle_gamma    59.99999804719733

_space_group_name_H-M_alt    "P 1"
_space_group_IT_number       1

loop_
  _space_group_symop_operation_xyz
  'x, y, z'

loop_
  _atom_site_type_symbol
  _atom_site_label
  _atom_site_symmetry_multiplicity
  _atom_site_fract_x
  _atom_site_fract_y
  _atom_site_fract_z
  _atom_site_occupancy
  Nb  Nb1       1.0  0.25000055570024443  0.24999972323484823  0.24999983153679542  1.0000
  Nb  Nb2       1.0  0.7499998898886803  0.7500005733956301  0.7499991411277386  1.0000
  Ti  Ti1       1.0  0.9999999668572169  0.9999999514035082  2.7168761924030747e-09  1.0000
  Cl  Cl1       1.0  0.2575952258315883  0.2575949014329937  0.7424049783047725  1.0000
  Cl  Cl2       1.0  0.7424046891274844  0.7424050363310607  0.2575953563003124  1.0000
  Cl  Cl3       1.0  0.7424048779380906  0.25759482988482824  0.2575953460711637  1.0000
  Cl  Cl4       1.0  0.25759503864275535  0.7424049919952803  0.742405022773352  1.0000
  Cl  Cl5       1.0  0.2575948320010177  0.7424050750998576  0.25759518930113473  1.0000
  Cl  Cl6       1.0  0.7424049108487512  0.2575949243443679  0.7424051226868809  1.0000
