data_image0
_chemical_formula_structural       Nb2TaSe6
_chemical_formula_sum              "Nb2 Ta1 Se6"
_cell_length_a       6.562109529973042
_cell_length_b       6.562109349082599
_cell_length_c       6.562109482867909
_cell_angle_alpha    60.00000101255577
_cell_angle_beta     60.00000085514094
_cell_angle_gamma    60.000001704369595

_space_group_name_H-M_alt    "P 1"
_space_group_IT_number       1

loop_
  _space_group_symop_operation_xyz
  'x, y, z'

loop_
  _atom_site_type_symbol
  _atom_site_label
  _atom_site_symmetry_multiplicity
  _atom_site_fract_x
  _atom_site_fract_y
  _atom_site_fract_z
  _atom_site_occupancy
  Nb  Nb1       1.0  0.25000009621015307  0.25000001290862783  0.24999995871984396  1.0000
  Nb  Nb2       1.0  0.749999965138757  0.7500000853856014  0.7499999460000136  1.0000
  Ta  Ta1       1.0  0.9999999986490002  9.331944941487045e-09  5.812281539715408e-10  1.0000
  Se  Se1       1.0  0.2652419591508496  0.26524195807286827  0.7347580577621303  1.0000
  Se  Se2       1.0  0.7347580438826973  0.7347580301044111  0.2652419829864891  1.0000
  Se  Se3       1.0  0.7347579732521591  0.26524192484859466  0.26524202044260664  1.0000
  Se  Se4       1.0  0.26524199741547466  0.734758007337014  0.7347580233394984  1.0000
  Se  Se5       1.0  0.26524198274172645  0.7347579845228007  0.2652419942266436  1.0000
  Se  Se6       1.0  0.7347579818997784  0.26524198685697603  0.7347580101129391  1.0000
