data_image0
_chemical_formula_structural       Nb2TiS6
_chemical_formula_sum              "Nb2 Ti1 S6"
_cell_length_a       6.045649359260894
_cell_length_b       6.045648580773826
_cell_length_c       6.0456487186712256
_cell_angle_alpha    59.999996742774776
_cell_angle_beta     59.99999605296872
_cell_angle_gamma    59.99999407362521

_space_group_name_H-M_alt    "P 1"
_space_group_IT_number       1

loop_
  _space_group_symop_operation_xyz
  'x, y, z'

loop_
  _atom_site_type_symbol
  _atom_site_label
  _atom_site_symmetry_multiplicity
  _atom_site_fract_x
  _atom_site_fract_y
  _atom_site_fract_z
  _atom_site_occupancy
  Nb  Nb1       1.0  0.24999949209833983  0.2500001774153222  0.2500005948009923  1.0000
  Nb  Nb2       1.0  0.7500008480439699  0.7499999204456106  0.7499993826729235  1.0000
  Ti  Ti1       1.0  1.1394277436531874e-07  0.9999999675867363  0.9999999592352389  1.0000
  S   S1        1.0  0.2691343744953804  0.2691345944794072  0.7308654624028267  1.0000
  S   S2        1.0  0.7308655815346417  0.7308652805403577  0.2691348450131582  1.0000
  S   S3        1.0  0.7308652949970936  0.2691344650741116  0.26913447208347235  1.0000
  S   S4        1.0  0.2691342133055474  0.7308656186060336  0.730865397440329  1.0000
  S   S5        1.0  0.2691343515274201  0.7308656288328309  0.26913460912753284  1.0000
  S   S6        1.0  0.7308657992797533  0.2691343150651118  0.7308652637637306  1.0000
