data_image0
_chemical_formula_structural       Nb2TaTe6
_chemical_formula_sum              "Nb2 Ta1 Te6"
_cell_length_a       7.083934170285176
_cell_length_b       7.083934120197617
_cell_length_c       7.083934145835484
_cell_angle_alpha    59.99999992619895
_cell_angle_beta     59.99999951570038
_cell_angle_gamma    60.00000008681525

_space_group_name_H-M_alt    "P 1"
_space_group_IT_number       1

loop_
  _space_group_symop_operation_xyz
  'x, y, z'

loop_
  _atom_site_type_symbol
  _atom_site_label
  _atom_site_symmetry_multiplicity
  _atom_site_fract_x
  _atom_site_fract_y
  _atom_site_fract_z
  _atom_site_occupancy
  Nb  Nb1       1.0  0.24999996061876836  0.24999999412150942  0.24999997882465275  1.0000
  Nb  Nb2       1.0  0.7500000117471274  0.7500000376894872  0.7499999836189191  1.0000
  Ta  Ta1       1.0  0.9999999809001326  3.284919390437858e-08  1.7123301315051142e-08  1.0000
  Te  Te1       1.0  0.2640676403063128  0.2640676386498669  0.7359323628303588  1.0000
  Te  Te2       1.0  0.7359323890455867  0.7359323395650769  0.26406763885594137  1.0000
  Te  Te3       1.0  0.7359323980675516  0.26406758265874464  0.2640676372631866  1.0000
  Te  Te4       1.0  0.26406763245391607  0.7359323627070051  0.7359323280320625  1.0000
  Te  Te5       1.0  0.2640676567297228  0.7359323717676922  0.2640676410852122  1.0000
  Te  Te6       1.0  0.7359323351145858  0.2640676358386356  0.7359324084201854  1.0000
