data_image0
_chemical_formula_structural       Nb2TaS6
_chemical_formula_sum              "Nb2 Ta1 S6"
_cell_length_a       6.2735992911294645
_cell_length_b       6.273599476932224
_cell_length_c       6.273599492374706
_cell_angle_alpha    59.99999712462231
_cell_angle_beta     59.999997149266214
_cell_angle_gamma    59.999998828471824

_space_group_name_H-M_alt    "P 1"
_space_group_IT_number       1

loop_
  _space_group_symop_operation_xyz
  'x, y, z'

loop_
  _atom_site_type_symbol
  _atom_site_label
  _atom_site_symmetry_multiplicity
  _atom_site_fract_x
  _atom_site_fract_y
  _atom_site_fract_z
  _atom_site_occupancy
  Nb  Nb1       1.0  0.2499999446259783  0.24999994344021773  0.2500001658692039  1.0000
  Nb  Nb2       1.0  0.7499998957299961  0.7499999650238763  0.7499998414365261  1.0000
  Ta  Ta1       1.0  0.9999999815017945  0.9999999726689127  7.711000994502636e-08  1.0000
  S   S1        1.0  0.2671004697363466  0.26710034919727005  0.7328995091731092  1.0000
  S   S2        1.0  0.73289950304497  0.7328997252055575  0.26710046052926556  1.0000
  S   S3        1.0  0.7328996885450584  0.26710047931644065  0.26710036586375147  1.0000
  S   S4        1.0  0.26710053375651466  0.7328994760009413  0.7328995625309361  1.0000
  S   S5        1.0  0.267100333631095  0.7328995383619532  0.2671005118563612  1.0000
  S   S6        1.0  0.7328996456384671  0.2671005497064156  0.732899509934389  1.0000
