data_image0
_chemical_formula_structural       Nb2TaO6
_chemical_formula_sum              "Nb2 Ta1 O6"
_cell_length_a       5.0794764285609855
_cell_length_b       5.07947644661071
_cell_length_c       5.079476466705339
_cell_angle_alpha    60.00000095562084
_cell_angle_beta     60.00000050920853
_cell_angle_gamma    60.000000415682294

_space_group_name_H-M_alt    "P 1"
_space_group_IT_number       1

loop_
  _space_group_symop_operation_xyz
  'x, y, z'

loop_
  _atom_site_type_symbol
  _atom_site_label
  _atom_site_symmetry_multiplicity
  _atom_site_fract_x
  _atom_site_fract_y
  _atom_site_fract_z
  _atom_site_occupancy
  Nb  Nb1       1.0  0.25000004153253724  0.24999999495437308  0.250000023954847  1.0000
  Nb  Nb2       1.0  0.750000061635623  0.7499999486956637  0.7499998930592705  1.0000
  Ta  Ta1       1.0  0.9999999996099691  0.9999999807106915  2.1651910496096648e-08  1.0000
  O   O1        1.0  0.2654723207425487  0.2654722241299301  0.7345277063190362  1.0000
  O   O2        1.0  0.7345276931929589  0.7345277894438514  0.26547231287875644  1.0000
  O   O3        1.0  0.7345277212777821  0.26547230520932796  0.2654722451518224  1.0000
  O   O4        1.0  0.2654722239317925  0.7345276963086352  0.7345277711252951  1.0000
  O   O5        1.0  0.2654722104390133  0.734527732864055  0.26547229578445797  1.0000
  O   O6        1.0  0.7345277339431808  0.2654723120548528  0.7345277188929462  1.0000
