data_image0
_chemical_formula_structural       Nb2VTe6
_chemical_formula_sum              "Nb2 V1 Te6"
_cell_length_a       6.914573823525481
_cell_length_b       6.9145738908770715
_cell_length_c       6.914573883921513
_cell_angle_alpha    60.000000325921306
_cell_angle_beta     60.00000015704773
_cell_angle_gamma    60.00000020038671

_space_group_name_H-M_alt    "P 1"
_space_group_IT_number       1

loop_
  _space_group_symop_operation_xyz
  'x, y, z'

loop_
  _atom_site_type_symbol
  _atom_site_label
  _atom_site_symmetry_multiplicity
  _atom_site_fract_x
  _atom_site_fract_y
  _atom_site_fract_z
  _atom_site_occupancy
  Nb  Nb1       1.0  0.24999991237594427  0.25000005689907806  0.24999997308785027  1.0000
  Nb  Nb2       1.0  0.7499999904743783  0.7499999918008426  0.7499998227434249  1.0000
  V   V1        1.0  1.4337850004189252e-08  7.0850055679215805e-09  0.9999999921810138  1.0000
  Te  Te1       1.0  0.26087041798234556  0.2608703656770459  0.7391296191829445  1.0000
  Te  Te2       1.0  0.7391296082939567  0.739129603316562  0.2608704469250822  1.0000
  Te  Te3       1.0  0.7391296872984162  0.2608703379054943  0.26087042707171787  1.0000
  Te  Te4       1.0  0.26087041463221716  0.7391296045193425  0.7391296347406191  1.0000
  Te  Te5       1.0  0.2608703588155294  0.7391296001962105  0.26087044949001786  1.0000
  Te  Te6       1.0  0.7391295977771523  0.2608704325624479  0.7391296325932802  1.0000
