data_image0
_chemical_formula_structural       Nb2VS6
_chemical_formula_sum              "Nb2 V1 S6"
_cell_length_a       5.941015143509496
_cell_length_b       5.941015088946321
_cell_length_c       5.94101489843162
_cell_angle_alpha    60.000000625073895
_cell_angle_beta     60.00000310214414
_cell_angle_gamma    60.00000030238329

_space_group_name_H-M_alt    "P 1"
_space_group_IT_number       1

loop_
  _space_group_symop_operation_xyz
  'x, y, z'

loop_
  _atom_site_type_symbol
  _atom_site_label
  _atom_site_symmetry_multiplicity
  _atom_site_fract_x
  _atom_site_fract_y
  _atom_site_fract_z
  _atom_site_occupancy
  Nb  Nb1       1.0  0.24999983232227477  0.24999993183673047  0.24999940346292548  1.0000
  Nb  Nb2       1.0  0.7500000691251001  0.7500003005795544  0.7500007756217492  1.0000
  V   V1        1.0  6.670915809088381e-08  1.0307538715944665e-07  0.9999999622377225  1.0000
  S   S1        1.0  0.27109967528675893  0.27109980218681795  0.7289000571590974  1.0000
  S   S2        1.0  0.728900319908623  0.7289002364477504  0.2710990155743524  1.0000
  S   S3        1.0  0.7289008026656402  0.271099569922392  0.2710997604121389  1.0000
  S   S4        1.0  0.27109980669663997  0.7289000955792553  0.7289003953024077  1.0000
  S   S5        1.0  0.27109958298352305  0.728900550255004  0.27109976989171397  1.0000
  S   S6        1.0  0.7288997955390831  0.27109944921090534  0.7289008628751609  1.0000
