data_image0
_chemical_formula_structural       Nb2VF6
_chemical_formula_sum              "Nb2 V1 F6"
_cell_length_a       5.700118527677823
_cell_length_b       5.70012175748855
_cell_length_c       5.700119188633535
_cell_angle_alpha    60.000015740938395
_cell_angle_beta     59.999979238442265
_cell_angle_gamma    60.000034466229245

_space_group_name_H-M_alt    "P 1"
_space_group_IT_number       1

loop_
  _space_group_symop_operation_xyz
  'x, y, z'

loop_
  _atom_site_type_symbol
  _atom_site_label
  _atom_site_symmetry_multiplicity
  _atom_site_fract_x
  _atom_site_fract_y
  _atom_site_fract_z
  _atom_site_occupancy
  Nb  Nb1       1.0  0.2500006964977663  0.25000289221903776  0.24999915691449362  1.0000
  Nb  Nb2       1.0  0.7499995937880428  0.749998934774564  0.7500023772822881  1.0000
  V   V1        1.0  5.129286676912459e-07  0.9999984551361376  0.9999998265082546  1.0000
  F   F1        1.0  0.24344431278292633  0.2434444127526526  0.7565558639989303  1.0000
  F   F2        1.0  0.7565573407618115  0.7565554697322263  0.24344325210727216  1.0000
  F   F3        1.0  0.7565542977693629  0.24344549401013238  0.24344400008210407  1.0000
  F   F4        1.0  0.24344473841678388  0.7565549600094111  0.7565572599655906  1.0000
  F   F5        1.0  0.2434430425841663  0.756556396304953  0.2434438401383522  1.0000
  F   F6        1.0  0.7565556360774255  0.24344350766529418  0.7565537579928973  1.0000
