data_image0
_chemical_formula_structural       Nb2VO6
_chemical_formula_sum              "Nb2 V1 O6"
_cell_length_a       4.943657441201469
_cell_length_b       4.9436575672778345
_cell_length_c       4.9436574611098765
_cell_angle_alpha    60.00000011140712
_cell_angle_beta     60.00000012396728
_cell_angle_gamma    60.00000033053297

_space_group_name_H-M_alt    "P 1"
_space_group_IT_number       1

loop_
  _space_group_symop_operation_xyz
  'x, y, z'

loop_
  _atom_site_type_symbol
  _atom_site_label
  _atom_site_symmetry_multiplicity
  _atom_site_fract_x
  _atom_site_fract_y
  _atom_site_fract_z
  _atom_site_occupancy
  Nb  Nb1       1.0  0.25000025234597256  0.2499998348763319  0.2500000102462078  1.0000
  Nb  Nb2       1.0  0.7500001596516996  0.7499999654265783  0.7500001334204335  1.0000
  V   V1        1.0  1.8001652535982897e-08  0.9999999950451872  3.590549541965928e-09  1.0000
  O   O1        1.0  0.2588229720411077  0.2588230765470551  0.7411769606532406  1.0000
  O   O2        1.0  0.7411769546648208  0.7411769814061193  0.25882296509594416  1.0000
  O   O3        1.0  0.7411769571221483  0.25882306511541264  0.25882300419733284  1.0000
  O   O4        1.0  0.2588228310678047  0.7411770299988575  0.7411769702064973  1.0000
  O   O5        1.0  0.25882303074121893  0.7411769247371198  0.2588230020911301  1.0000
  O   O6        1.0  0.7411768327585526  0.2588231406482738  0.741176955590611  1.0000
