data_image0
_chemical_formula_structural       Nb2VBr6
_chemical_formula_sum              "Nb2 V1 Br6"
_cell_length_a       6.657675132044617
_cell_length_b       6.6576753072035
_cell_length_c       6.657675025921352
_cell_angle_alpha    59.99999955537549
_cell_angle_beta     59.99999961725408
_cell_angle_gamma    59.99999915613604

_space_group_name_H-M_alt    "P 1"
_space_group_IT_number       1

loop_
  _space_group_symop_operation_xyz
  'x, y, z'

loop_
  _atom_site_type_symbol
  _atom_site_label
  _atom_site_symmetry_multiplicity
  _atom_site_fract_x
  _atom_site_fract_y
  _atom_site_fract_z
  _atom_site_occupancy
  Nb  Nb1       1.0  0.24999996002897235  0.24999982943198568  0.2500000365396934  1.0000
  Nb  Nb2       1.0  0.750000011419379  0.7499999684311331  0.7499999255493477  1.0000
  V   V1        1.0  0.9999999563065726  4.782955789478071e-08  3.998865825221958e-08  1.0000
  Br  Br1       1.0  0.2577023108131197  0.25770235153223126  0.7422977376789616  1.0000
  Br  Br2       1.0  0.7422976999790117  0.7422976873182723  0.2577023050422936  1.0000
  Br  Br3       1.0  0.7422977323589194  0.2577023503045673  0.25770232961358797  1.0000
  Br  Br4       1.0  0.25770236678189584  0.7422976940647311  0.7422976226151775  1.0000
  Br  Br5       1.0  0.2577022551463725  0.7422977301125031  0.25770232233102536  1.0000
  Br  Br6       1.0  0.7422977122679567  0.2577023400111742  0.7422976828837938  1.0000
