data_image0
_chemical_formula_structural       Nb2VI6
_chemical_formula_sum              "Nb2 V1 I6"
_cell_length_a       7.452366902717148
_cell_length_b       7.452366980120182
_cell_length_c       7.4523667693169395
_cell_angle_alpha    60.00000031642414
_cell_angle_beta     60.000001560696155
_cell_angle_gamma    59.99999981389672

_space_group_name_H-M_alt    "P 1"
_space_group_IT_number       1

loop_
  _space_group_symop_operation_xyz
  'x, y, z'

loop_
  _atom_site_type_symbol
  _atom_site_label
  _atom_site_symmetry_multiplicity
  _atom_site_fract_x
  _atom_site_fract_y
  _atom_site_fract_z
  _atom_site_occupancy
  Nb  Nb1       1.0  0.2500000358338563  0.250000002361449  0.25000000643239223  1.0000
  Nb  Nb2       1.0  0.7500000671221048  0.7500000120146397  0.7500000034753725  1.0000
  V   V1        1.0  9.218784955084403e-09  0.99999997699197  1.762946743616049e-08  1.0000
  I   I1        1.0  0.25274316753936205  0.25274316715593015  0.7472568360948505  1.0000
  I   I2        1.0  0.7472568284890202  0.7472568751584824  0.2527431395054834  1.0000
  I   I3        1.0  0.7472568339940421  0.2527431292898201  0.25274316501102567  1.0000
  I   I4        1.0  0.25274312225106543  0.7472568324964883  0.7472568613520086  1.0000
  I   I5        1.0  0.252743096772779  0.7472568805072909  0.252743137318258  1.0000
  I   I6        1.0  0.7472568432259993  0.2527431207213551  0.7472568358492486  1.0000
