data_image0
_chemical_formula_structural       Nb2WSe6
_chemical_formula_sum              "Nb2 W1 Se6"
_cell_length_a       6.587640599945862
_cell_length_b       6.587640932783223
_cell_length_c       6.5876405903317465
_cell_angle_alpha    60.00000174568083
_cell_angle_beta     60.00000315303307
_cell_angle_gamma    60.00000488844827

_space_group_name_H-M_alt    "P 1"
_space_group_IT_number       1

loop_
  _space_group_symop_operation_xyz
  'x, y, z'

loop_
  _atom_site_type_symbol
  _atom_site_label
  _atom_site_symmetry_multiplicity
  _atom_site_fract_x
  _atom_site_fract_y
  _atom_site_fract_z
  _atom_site_occupancy
  Nb  Nb1       1.0  0.249999750873667  0.25000003754677674  0.25000024602237314  1.0000
  Nb  Nb2       1.0  0.7500001295700436  0.7499999006966445  0.7499999425762401  1.0000
  W   W1        1.0  3.7110134142160215e-08  1.4873246112705945e-08  0.9999998282808705  1.0000
  Se  Se1       1.0  0.261464155851287  0.2614642537655325  0.7385358134717367  1.0000
  Se  Se2       1.0  0.7385358083909757  0.7385357328159318  0.261464310576575  1.0000
  Se  Se3       1.0  0.7385356601517173  0.2614642503985687  0.26146420259945097  1.0000
  Se  Se4       1.0  0.2614642351985918  0.7385357640702264  0.7385358129216664  1.0000
  Se  Se5       1.0  0.2614642818570072  0.7385357843995483  0.2614641333801303  1.0000
  Se  Se6       1.0  0.7385359349687407  0.2614642542382769  0.7385357108367542  1.0000
