data_image0
_chemical_formula_structural       Nb2WO6
_chemical_formula_sum              "Nb2 W1 O6"
_cell_length_a       5.119339550205105
_cell_length_b       5.119339468805658
_cell_length_c       5.1193397829052
_cell_angle_alpha    59.99999974672042
_cell_angle_beta     59.9999998760302
_cell_angle_gamma    60.0000009613536

_space_group_name_H-M_alt    "P 1"
_space_group_IT_number       1

loop_
  _space_group_symop_operation_xyz
  'x, y, z'

loop_
  _atom_site_type_symbol
  _atom_site_label
  _atom_site_symmetry_multiplicity
  _atom_site_fract_x
  _atom_site_fract_y
  _atom_site_fract_z
  _atom_site_occupancy
  Nb  Nb1       1.0  0.2500000521863081  0.24999994107892354  0.2500000539742008  1.0000
  Nb  Nb2       1.0  0.7500000534166023  0.7499999093627503  0.7499999282120396  1.0000
  W   W1        1.0  0.9999999682852608  7.177164677108877e-09  0.999999996641772  1.0000
  O   O1        1.0  0.26271619195944135  0.26271624465491256  0.737283771764511  1.0000
  O   O2        1.0  0.7372838308676378  0.7372838067473927  0.2627162509515524  1.0000
  O   O3        1.0  0.7372838051858812  0.2627161886832636  0.26271623464846916  1.0000
  O   O4        1.0  0.2627162686318663  0.7372837909473876  0.73728373985678  1.0000
  O   O5        1.0  0.2627161311562902  0.7372838317128838  0.2627162320373613  1.0000
  O   O6        1.0  0.7372837057566626  0.26271626992957603  0.737283835075164  1.0000
