data_image0
_chemical_formula_structural       Nb2WTe6
_chemical_formula_sum              "Nb2 W1 Te6"
_cell_length_a       7.036798045729929
_cell_length_b       7.03679803679625
_cell_length_c       7.0367980294632995
_cell_angle_alpha    59.999999983951554
_cell_angle_beta     59.99999998434555
_cell_angle_gamma    59.99999990481855

_space_group_name_H-M_alt    "P 1"
_space_group_IT_number       1

loop_
  _space_group_symop_operation_xyz
  'x, y, z'

loop_
  _atom_site_type_symbol
  _atom_site_label
  _atom_site_symmetry_multiplicity
  _atom_site_fract_x
  _atom_site_fract_y
  _atom_site_fract_z
  _atom_site_occupancy
  Nb  Nb1       1.0  0.24999999046425253  0.2500000008171751  0.2500000062595651  1.0000
  Nb  Nb2       1.0  0.750000042135436  0.7500000215968716  0.7500000022567009  1.0000
  W   W1        1.0  8.58581172953176e-09  8.702430176715971e-09  0.9999999771448701  1.0000
  Te  Te1       1.0  0.26301137437097466  0.26301143395723603  0.7369886027341351  1.0000
  Te  Te2       1.0  0.736988559109332  0.7369885658304922  0.2630114211797522  1.0000
  Te  Te3       1.0  0.7369885729322163  0.2630114354094901  0.26301140857708893  1.0000
  Te  Te4       1.0  0.2630114402918192  0.7369885417519194  0.7369885555138738  1.0000
  Te  Te5       1.0  0.26301144232019197  0.7369885714466374  0.263011427330066  1.0000
  Te  Te6       1.0  0.7369885728263312  0.26301141963866054  0.7369885998927533  1.0000
