data_image0
_chemical_formula_structural       Nb2WS6
_chemical_formula_sum              "Nb2 W1 S6"
_cell_length_a       6.294280789874593
_cell_length_b       6.294281312566717
_cell_length_c       6.294281032912871
_cell_angle_alpha    59.99999517962571
_cell_angle_beta     59.999995541958086
_cell_angle_gamma    59.99999377585137

_space_group_name_H-M_alt    "P 1"
_space_group_IT_number       1

loop_
  _space_group_symop_operation_xyz
  'x, y, z'

loop_
  _atom_site_type_symbol
  _atom_site_label
  _atom_site_symmetry_multiplicity
  _atom_site_fract_x
  _atom_site_fract_y
  _atom_site_fract_z
  _atom_site_occupancy
  Nb  Nb1       1.0  0.2500008116431264  0.2500004263998126  0.2499994843920219  1.0000
  Nb  Nb2       1.0  0.7500004226900738  0.749999566890377  0.7500005728268749  1.0000
  W   W1        1.0  0.9999998100425368  5.25367777594158e-08  0.99999989553727  1.0000
  S   S1        1.0  0.26305333843660117  0.2630532041953715  0.736946593414658  1.0000
  S   S2        1.0  0.7369463671630162  0.7369468513607276  0.26305343285233884  1.0000
  S   S3        1.0  0.7369463962001195  0.26305335976029603  0.26305313072289915  1.0000
  S   S4        1.0  0.26305289787491193  0.7369465985055371  0.7369470514494223  1.0000
  S   S5        1.0  0.26305325001004987  0.7369469690630284  0.2630530437274584  1.0000
  S   S6        1.0  0.7369466724893798  0.26305309622209405  0.7369467850216933  1.0000
