data_image0
_chemical_formula_structural       Nb2ZrS6
_chemical_formula_sum              "Nb2 Zr1 S6"
_cell_length_a       6.274768950957492
_cell_length_b       6.27476896701646
_cell_length_c       6.274769005313281
_cell_angle_alpha    60.00000100434107
_cell_angle_beta     60.0000011780659
_cell_angle_gamma    60.000001225837295

_space_group_name_H-M_alt    "P 1"
_space_group_IT_number       1

loop_
  _space_group_symop_operation_xyz
  'x, y, z'

loop_
  _atom_site_type_symbol
  _atom_site_label
  _atom_site_symmetry_multiplicity
  _atom_site_fract_x
  _atom_site_fract_y
  _atom_site_fract_z
  _atom_site_occupancy
  Nb  Nb1       1.0  0.24999997686633188  0.24999996106707595  0.2500000085635327  1.0000
  Nb  Nb2       1.0  0.7500000606778878  0.749999945660638  0.750000112695128  1.0000
  Zr  Zr1       1.0  4.870065058700848e-09  1.9518565352876594e-09  0.9999999981827234  1.0000
  S   S1        1.0  0.2712209848485852  0.2712211287745161  0.7287789621594375  1.0000
  S   S2        1.0  0.728778978266811  0.7287788853053039  0.27122103586074303  1.0000
  S   S3        1.0  0.7287788953769331  0.2712210728241217  0.27122106356412123  1.0000
  S   S4        1.0  0.2712210598385603  0.7287789373519848  0.7287789037031313  1.0000
  S   S5        1.0  0.2712211129720457  0.7287789785202754  0.2712210297113093  1.0000
  S   S6        1.0  0.7287788981742294  0.27122109021152635  0.7287788850937584  1.0000
