data_image0
_chemical_formula_structural       Nb2ZrSe6
_chemical_formula_sum              "Nb2 Zr1 Se6"
_cell_length_a       6.5705869786768325
_cell_length_b       6.570586921797739
_cell_length_c       6.5705869845367335
_cell_angle_alpha    60.00000079887659
_cell_angle_beta     60.00000029878273
_cell_angle_gamma    60.00000105505087

_space_group_name_H-M_alt    "P 1"
_space_group_IT_number       1

loop_
  _space_group_symop_operation_xyz
  'x, y, z'

loop_
  _atom_site_type_symbol
  _atom_site_label
  _atom_site_symmetry_multiplicity
  _atom_site_fract_x
  _atom_site_fract_y
  _atom_site_fract_z
  _atom_site_occupancy
  Nb  Nb1       1.0  0.24999994373824946  0.2499999494651873  0.25000017296837984  1.0000
  Nb  Nb2       1.0  0.7500000543620439  0.7500000963050224  0.7500000611743941  1.0000
  Zr  Zr1       1.0  0.9999999725915911  2.4231751052616805e-08  0.9999999544083737  1.0000
  Se  Se1       1.0  0.2700632379195525  0.2700632102257239  0.7299367812259792  1.0000
  Se  Se2       1.0  0.7299367968207414  0.7299367572572845  0.27006317848519074  1.0000
  Se  Se3       1.0  0.7299367581088839  0.27006322828578283  0.2700631912268538  1.0000
  Se  Se4       1.0  0.27006318975537585  0.7299368100284989  0.7299367384583457  1.0000
  Se  Se5       1.0  0.2700632352830785  0.7299367637800028  0.2700632256743082  1.0000
  Se  Se6       1.0  0.729936810339582  0.27006315523950114  0.7299366919500685  1.0000
