data_image0
_chemical_formula_structural       Nb2ZnCl6
_chemical_formula_sum              "Nb2 Zn1 Cl6"
_cell_length_a       6.481138348900143
_cell_length_b       6.4811383269166125
_cell_length_c       6.481138463291177
_cell_angle_alpha    60.00000075247678
_cell_angle_beta     60.00000101719451
_cell_angle_gamma    60.00000024686987

_space_group_name_H-M_alt    "P 1"
_space_group_IT_number       1

loop_
  _space_group_symop_operation_xyz
  'x, y, z'

loop_
  _atom_site_type_symbol
  _atom_site_label
  _atom_site_symmetry_multiplicity
  _atom_site_fract_x
  _atom_site_fract_y
  _atom_site_fract_z
  _atom_site_occupancy
  Nb  Nb1       1.0  0.2499999544112231  0.2500001407589642  0.2499999039199419  1.0000
  Nb  Nb2       1.0  0.7500000920825713  0.7499999441811713  0.7499999382171937  1.0000
  Zn  Zn1       1.0  0.9999999820756027  5.669119007811253e-09  0.9999999798976794  1.0000
  Cl  Cl1       1.0  0.2560742382478869  0.25607428971253926  0.7439257367849537  1.0000
  Cl  Cl2       1.0  0.7439257208749387  0.7439257366466988  0.2560742863338294  1.0000
  Cl  Cl3       1.0  0.7439257373646485  0.25607420836205363  0.25607430702787404  1.0000
  Cl  Cl4       1.0  0.25607428229977214  0.7439256951662684  0.7439258089531208  1.0000
  Cl  Cl5       1.0  0.25607423123208845  0.7439257392391431  0.25607429563624085  1.0000
  Cl  Cl6       1.0  0.7439257511785737  0.25607424932596706  0.7439257470791982  1.0000
