data_image0
_chemical_formula_structural       Nb2ZnI6
_chemical_formula_sum              "Nb2 Zn1 I6"
_cell_length_a       7.44219026764908
_cell_length_b       7.4421902928686325
_cell_length_c       7.4421902815348675
_cell_angle_alpha    60.000000120082916
_cell_angle_beta     59.99999987847649
_cell_angle_gamma    60.00000010833173

_space_group_name_H-M_alt    "P 1"
_space_group_IT_number       1

loop_
  _space_group_symop_operation_xyz
  'x, y, z'

loop_
  _atom_site_type_symbol
  _atom_site_label
  _atom_site_symmetry_multiplicity
  _atom_site_fract_x
  _atom_site_fract_y
  _atom_site_fract_z
  _atom_site_occupancy
  Nb  Nb1       1.0  0.24999999655561753  0.2500000260184463  0.24999995234891717  1.0000
  Nb  Nb2       1.0  0.7499998911979198  0.7500000615985593  0.7500001187505559  1.0000
  Zn  Zn1       1.0  1.2977188072487513e-08  0.9999999703777963  0.999999990854532  1.0000
  I   I1        1.0  0.2563216572898232  0.2563215841639635  0.7436783817734325  1.0000
  I   I2        1.0  0.7436783875961988  0.7436783997753291  0.25632158869568  1.0000
  I   I3        1.0  0.7436784155001105  0.25632161360757905  0.2563216106092604  1.0000
  I   I4        1.0  0.2563216328655031  0.7436783505835779  0.743678412335909  1.0000
  I   I5        1.0  0.25632163064329644  0.7436784093327434  0.25632158012197054  1.0000
  I   I6        1.0  0.7436783737139274  0.2563215844806171  0.7436783653637936  1.0000
