data_image0
_chemical_formula_structural       Nb2ZrTe6
_chemical_formula_sum              "Nb2 Zr1 Te6"
_cell_length_a       7.117557078473174
_cell_length_b       7.117557090689772
_cell_length_c       7.117557111491156
_cell_angle_alpha    59.99999931711268
_cell_angle_beta     59.99999970495173
_cell_angle_gamma    59.99999934359843

_space_group_name_H-M_alt    "P 1"
_space_group_IT_number       1

loop_
  _space_group_symop_operation_xyz
  'x, y, z'

loop_
  _atom_site_type_symbol
  _atom_site_label
  _atom_site_symmetry_multiplicity
  _atom_site_fract_x
  _atom_site_fract_y
  _atom_site_fract_z
  _atom_site_occupancy
  Nb  Nb1       1.0  0.25000001623815976  0.249999960790216  0.24999998682385613  1.0000
  Nb  Nb2       1.0  0.7499999953069687  0.7499999890563853  0.7499999872215589  1.0000
  Zr  Zr1       1.0  0.999999961702371  5.162213111638053e-08  0.9999999933377487  1.0000
  Te  Te1       1.0  0.26725306885971856  0.26725309941357106  0.7327469282336242  1.0000
  Te  Te2       1.0  0.7327469131545216  0.7327469244247508  0.2672531064749842  1.0000
  Te  Te3       1.0  0.7327469584883155  0.2672530528234925  0.2672530589068275  1.0000
  Te  Te4       1.0  0.2672531126077454  0.7327468935816329  0.7327469236132462  1.0000
  Te  Te5       1.0  0.2672530657177049  0.7327469583725348  0.2672530495484861  1.0000
  Te  Te6       1.0  0.7327469065625728  0.26725306546578736  0.7327469717624097  1.0000
