data_image0
_chemical_formula_structural       Nb2ZnBr6
_chemical_formula_sum              "Nb2 Zn1 Br6"
_cell_length_a       6.688382763294991
_cell_length_b       6.688382743858187
_cell_length_c       6.688382788054021
_cell_angle_alpha    59.99999970261125
_cell_angle_beta     59.99999986488764
_cell_angle_gamma    59.99999937509582

_space_group_name_H-M_alt    "P 1"
_space_group_IT_number       1

loop_
  _space_group_symop_operation_xyz
  'x, y, z'

loop_
  _atom_site_type_symbol
  _atom_site_label
  _atom_site_symmetry_multiplicity
  _atom_site_fract_x
  _atom_site_fract_y
  _atom_site_fract_z
  _atom_site_occupancy
  Nb  Nb1       1.0  0.25000000269875733  0.2500000032591464  0.24999999774128398  1.0000
  Nb  Nb2       1.0  0.7499999903083736  0.7500000372447266  0.7499999704426005  1.0000
  Zn  Zn1       1.0  1.0472540028272636e-10  0.9999999945065425  1.1992363142058697e-09  1.0000
  Br  Br1       1.0  0.25764257288973286  0.2576425759487447  0.7423574256936241  1.0000
  Br  Br2       1.0  0.7423574217750364  0.7423574077894008  0.25764258350047264  1.0000
  Br  Br3       1.0  0.7423574229794089  0.25764257575596056  0.2576425816684276  1.0000
  Br  Br4       1.0  0.257642570150416  0.7423574281248624  0.7423574286877107  1.0000
  Br  Br5       1.0  0.2576425765804078  0.7423574193789249  0.25764257683362296  1.0000
  Br  Br6       1.0  0.7423574400222551  0.2576425606969155  0.7423574351837173  1.0000
