data_image0
_chemical_formula_structural       Nb2ZrO6
_chemical_formula_sum              "Nb2 Zr1 O6"
_cell_length_a       5.173516409881627
_cell_length_b       5.173516267719362
_cell_length_c       5.173516211001593
_cell_angle_alpha    59.99999854039489
_cell_angle_beta     59.99999759601178
_cell_angle_gamma    59.999998555166506

_space_group_name_H-M_alt    "P 1"
_space_group_IT_number       1

loop_
  _space_group_symop_operation_xyz
  'x, y, z'

loop_
  _atom_site_type_symbol
  _atom_site_label
  _atom_site_symmetry_multiplicity
  _atom_site_fract_x
  _atom_site_fract_y
  _atom_site_fract_z
  _atom_site_occupancy
  Nb  Nb1       1.0  0.24999997375282806  0.2500001583119734  0.2499999128521411  1.0000
  Nb  Nb2       1.0  0.7500000220172355  0.7500001458762781  0.7500002489557497  1.0000
  Zr  Zr1       1.0  0.9999999709614815  4.024470409353508e-08  0.9999999943969075  1.0000
  O   O1        1.0  0.26828204489603397  0.2682818989115241  0.7317180128895658  1.0000
  O   O2        1.0  0.7317179555237711  0.7317180833190973  0.2682818745978887  1.0000
  O   O3        1.0  0.7317180931986141  0.268282010113486  0.2682819472049041  1.0000
  O   O4        1.0  0.26828186233473184  0.7317179460764439  0.7317180337337682  1.0000
  O   O5        1.0  0.2682820786096488  0.7317178308463391  0.26828190952099856  1.0000
  O   O6        1.0  0.7317180533867568  0.268281883875367  0.731718001475422  1.0000
