data_image0
_chemical_formula_structural       Ni2AuF6
_chemical_formula_sum              "Ni2 Au1 F6"
_cell_length_a       5.626402040089852
_cell_length_b       5.626402164504372
_cell_length_c       5.626401735695542
_cell_angle_alpha    59.99999958265262
_cell_angle_beta     60.000000745875006
_cell_angle_gamma    59.9999952703617

_space_group_name_H-M_alt    "P 1"
_space_group_IT_number       1

loop_
  _space_group_symop_operation_xyz
  'x, y, z'

loop_
  _atom_site_type_symbol
  _atom_site_label
  _atom_site_symmetry_multiplicity
  _atom_site_fract_x
  _atom_site_fract_y
  _atom_site_fract_z
  _atom_site_occupancy
  Ni  Ni1       1.0  0.24999954320497023  0.2499998954771284  0.2500001473267427  1.0000
  Ni  Ni2       1.0  0.7500004336554251  0.7499999694128822  0.7499999067869747  1.0000
  Au  Au1       1.0  8.084665248943006e-09  6.530346418877199e-09  0.9999999269311037  1.0000
  F   F1        1.0  0.25494061248464134  0.2549405936553456  0.7450593935770701  1.0000
  F   F2        1.0  0.7450593541533536  0.745059412725473  0.25494058779310114  1.0000
  F   F3        1.0  0.7450595782938564  0.2549406753190099  0.25494059278876935  1.0000
  F   F4        1.0  0.25494047240256  0.7450594790829549  0.745059315197651  1.0000
  F   F5        1.0  0.254940486670493  0.745059445587129  0.254940741116276  1.0000
  F   F6        1.0  0.7450595718011952  0.2549406239203496  0.7450592516404598  1.0000
