data_image0
_chemical_formula_structural       Ni2AgF6
_chemical_formula_sum              "Ni2 Ag1 F6"
_cell_length_a       5.546378617368711
_cell_length_b       5.546378382632085
_cell_length_c       5.546378298422979
_cell_angle_alpha    60.00000063500185
_cell_angle_beta     59.99999842126055
_cell_angle_gamma    59.999999843368464

_space_group_name_H-M_alt    "P 1"
_space_group_IT_number       1

loop_
  _space_group_symop_operation_xyz
  'x, y, z'

loop_
  _atom_site_type_symbol
  _atom_site_label
  _atom_site_symmetry_multiplicity
  _atom_site_fract_x
  _atom_site_fract_y
  _atom_site_fract_z
  _atom_site_occupancy
  Ni  Ni1       1.0  0.24999990033269553  0.2500001074231972  0.24999987274456  1.0000
  Ni  Ni2       1.0  0.7500000531388065  0.750000015331403  0.7499997867481103  1.0000
  Ag  Ag1       1.0  1.2238821246246413e-08  1.324913138498941e-08  3.233048215740447e-08  1.0000
  F   F1        1.0  0.2587280030200912  0.2587279729963406  0.7412720544096072  1.0000
  F   F2        1.0  0.7412719228202543  0.741272070263482  0.2587280985727486  1.0000
  F   F3        1.0  0.7412720907710751  0.25872802513104165  0.25872805918365044  1.0000
  F   F4        1.0  0.2587280680148772  0.7412717752280535  0.7412721077911509  1.0000
  F   F5        1.0  0.2587279554426893  0.74127191389496  0.2587281415552819  1.0000
  F   F6        1.0  0.7412720316784481  0.2587280454537  0.7412718767010109  1.0000
