data_image0
_chemical_formula_structural       Ni2AgI6
_chemical_formula_sum              "Ni2 Ag1 I6"
_cell_length_a       7.422866907566312
_cell_length_b       7.422866784807233
_cell_length_c       7.422866623017011
_cell_angle_alpha    60.00000058643964
_cell_angle_beta     60.000000338907206
_cell_angle_gamma    60.00000018701479

_space_group_name_H-M_alt    "P 1"
_space_group_IT_number       1

loop_
  _space_group_symop_operation_xyz
  'x, y, z'

loop_
  _atom_site_type_symbol
  _atom_site_label
  _atom_site_symmetry_multiplicity
  _atom_site_fract_x
  _atom_site_fract_y
  _atom_site_fract_z
  _atom_site_occupancy
  Ni  Ni1       1.0  0.24999998921631514  0.2500000187061364  0.25000001403355665  1.0000
  Ni  Ni2       1.0  0.7500000231490973  0.7499999736203058  0.750000073113095  1.0000
  Ag  Ag1       1.0  0.9999999882777302  1.6499620651038775e-08  0.9999999720147446  1.0000
  I   I1        1.0  0.2624873833574698  0.26248739961219864  0.7375125952210008  1.0000
  I   I2        1.0  0.737512607857716  0.7375126141637504  0.2624873705290527  1.0000
  I   I3        1.0  0.7375126004880919  0.26248741623712657  0.26248738188972603  1.0000
  I   I4        1.0  0.2624873659318709  0.7375125925889361  0.7375126027744477  1.0000
  I   I5        1.0  0.26248739530042603  0.7375126064953968  0.26248740567893775  1.0000
  I   I6        1.0  0.737512640870789  0.2624873610816142  0.7375125943722805  1.0000
