data_image0
_chemical_formula_structural       Ni2AuBr6
_chemical_formula_sum              "Ni2 Au1 Br6"
_cell_length_a       6.991324627711912
_cell_length_b       6.991324669818927
_cell_length_c       6.9913246396967175
_cell_angle_alpha    59.999999474851435
_cell_angle_beta     59.99999936740437
_cell_angle_gamma    59.999999601484944

_space_group_name_H-M_alt    "P 1"
_space_group_IT_number       1

loop_
  _space_group_symop_operation_xyz
  'x, y, z'

loop_
  _atom_site_type_symbol
  _atom_site_label
  _atom_site_symmetry_multiplicity
  _atom_site_fract_x
  _atom_site_fract_y
  _atom_site_fract_z
  _atom_site_occupancy
  Ni  Ni1       1.0  0.24999996919146364  0.24999999600994202  0.2500000165017771  1.0000
  Ni  Ni2       1.0  0.7500000115920169  0.7500000475912506  0.7499999762978699  1.0000
  Au  Au1       1.0  2.1471048651532753e-08  6.895309906812074e-18  0.9999999821127551  1.0000
  Br  Br1       1.0  0.2593900028359567  0.25938997453997825  0.7406100217907058  1.0000
  Br  Br2       1.0  0.7406100027390004  0.740610039280502  0.259389972073215  1.0000
  Br  Br3       1.0  0.7406100228160324  0.2593899611132243  0.2593900037693099  1.0000
  Br  Br4       1.0  0.25938997433483285  0.7406100036566708  0.7406100102498852  1.0000
  Br  Br5       1.0  0.2593899681874264  0.74061002552165  0.25938998996353313  1.0000
  Br  Br6       1.0  0.7406100309986187  0.2593899480072784  0.7406100115068348  1.0000
