data_image0
_chemical_formula_structural       Ni2AgBr6
_chemical_formula_sum              "Ni2 Ag1 Br6"
_cell_length_a       6.979069017849072
_cell_length_b       6.9790690014456995
_cell_length_c       6.979069078990596
_cell_angle_alpha    59.99999957482897
_cell_angle_beta     59.99999978114932
_cell_angle_gamma    59.99999961666828

_space_group_name_H-M_alt    "P 1"
_space_group_IT_number       1

loop_
  _space_group_symop_operation_xyz
  'x, y, z'

loop_
  _atom_site_type_symbol
  _atom_site_label
  _atom_site_symmetry_multiplicity
  _atom_site_fract_x
  _atom_site_fract_y
  _atom_site_fract_z
  _atom_site_occupancy
  Ni  Ni1       1.0  0.2499999717433022  0.25000001382941733  0.25000003596826087  1.0000
  Ni  Ni2       1.0  0.7500000238776686  0.7499999835771165  0.7499999922665506  1.0000
  Ag  Ag1       1.0  1.1481272657222965e-08  5.264648679516873e-09  0.9999999672684898  1.0000
  Br  Br1       1.0  0.2588387020884868  0.2588387039039671  0.7411612957416278  1.0000
  Br  Br2       1.0  0.7411612918779644  0.7411612935025667  0.258838708961894  1.0000
  Br  Br3       1.0  0.7411612761573096  0.25883872290825943  0.2588387226586489  1.0000
  Br  Br4       1.0  0.2588387178922853  0.741161299066635  0.7411612711519765  1.0000
  Br  Br5       1.0  0.25883870476535265  0.741161267923107  0.25883872821426473  1.0000
  Br  Br6       1.0  0.7411612972901889  0.25883871017971516  0.7411612835294236  1.0000
