data_image0
_chemical_formula_structural       Ni2BeI6
_chemical_formula_sum              "Ni2 Be1 I6"
_cell_length_a       7.283502657237148
_cell_length_b       7.2835026341929145
_cell_length_c       7.283502638822277
_cell_angle_alpha    59.99999996519335
_cell_angle_beta     60.000000040112475
_cell_angle_gamma    59.999999924018645

_space_group_name_H-M_alt    "P 1"
_space_group_IT_number       1

loop_
  _space_group_symop_operation_xyz
  'x, y, z'

loop_
  _atom_site_type_symbol
  _atom_site_label
  _atom_site_symmetry_multiplicity
  _atom_site_fract_x
  _atom_site_fract_y
  _atom_site_fract_z
  _atom_site_occupancy
  Ni  Ni1       1.0  0.2500000247279618  0.24999998177718644  0.24999999397407388  1.0000
  Ni  Ni2       1.0  0.7499999943221575  0.7500000041852081  0.7499999759506716  1.0000
  Be  Be1       1.0  0.9999999877814277  3.3630656421060193e-09  1.4038513887143767e-08  1.0000
  I   I1        1.0  0.24764344826233078  0.24764344805687863  0.7523565491489125  1.0000
  I   I2        1.0  0.7523565524035961  0.7523565597654425  0.24764344924321335  1.0000
  I   I3        1.0  0.7523565477031526  0.24764343621007423  0.2476434493987147  1.0000
  I   I4        1.0  0.24764346295580278  0.7523565463892544  0.7523565524894958  1.0000
  I   I5        1.0  0.2476434397662467  0.7523565547927635  0.2476434634107904  1.0000
  I   I6        1.0  0.7523565389765849  0.24764346648181995  0.7523565529464099  1.0000
