data_image0
_chemical_formula_structural       Ni2BeCl6
_chemical_formula_sum              "Ni2 Be1 Cl6"
_cell_length_a       6.251190388985735
_cell_length_b       6.251190309760744
_cell_length_c       6.251190304568911
_cell_angle_alpha    59.999999748011646
_cell_angle_beta     60.00000012271396
_cell_angle_gamma    60.00000108831916

_space_group_name_H-M_alt    "P 1"
_space_group_IT_number       1

loop_
  _space_group_symop_operation_xyz
  'x, y, z'

loop_
  _atom_site_type_symbol
  _atom_site_label
  _atom_site_symmetry_multiplicity
  _atom_site_fract_x
  _atom_site_fract_y
  _atom_site_fract_z
  _atom_site_occupancy
  Ni  Ni1       1.0  0.25000009251456146  0.24999982284269015  0.25000016399230857  1.0000
  Ni  Ni2       1.0  0.7500000644914372  0.7500001797244423  0.7499994782504898  1.0000
  Be  Be1       1.0  3.153314815869192e-09  0.9999999960815628  0.9999999731877404  1.0000
  Cl  Cl1       1.0  0.2457603918871606  0.24576044487358034  0.7542395477740078  1.0000
  Cl  Cl2       1.0  0.7542395273942796  0.7542395283052676  0.24576064714539178  1.0000
  Cl  Cl3       1.0  0.7542395200370527  0.24576032414932866  0.24576052480969704  1.0000
  Cl  Cl4       1.0  0.24576047245885152  0.7542396842954566  0.7542395262865627  1.0000
  Cl  Cl5       1.0  0.24576038954969187  0.7542395500977197  0.24576050604484342  1.0000
  Cl  Cl6       1.0  0.7542395343768589  0.24576047010237637  0.7542396278480793  1.0000
