data_image0
_chemical_formula_structural       Ni2BeBr6
_chemical_formula_sum              "Ni2 Be1 Br6"
_cell_length_a       6.765883240910884
_cell_length_b       6.765883250261996
_cell_length_c       6.76588319547061
_cell_angle_alpha    60.000001268688905
_cell_angle_beta     60.00000007629177
_cell_angle_gamma    60.000000918675035

_space_group_name_H-M_alt    "P 1"
_space_group_IT_number       1

loop_
  _space_group_symop_operation_xyz
  'x, y, z'

loop_
  _atom_site_type_symbol
  _atom_site_label
  _atom_site_symmetry_multiplicity
  _atom_site_fract_x
  _atom_site_fract_y
  _atom_site_fract_z
  _atom_site_occupancy
  Ni  Ni1       1.0  0.24999998812288385  0.25000010866295963  0.24999991660699175  1.0000
  Ni  Ni2       1.0  0.7499998865787344  0.7499997811255019  0.7500001971239534  1.0000
  Be  Be1       1.0  3.6203546597077797e-09  0.999999989138936  6.643473251443065e-10  1.0000
  Br  Br1       1.0  0.24697215456838081  0.24697220562839825  0.7530278044307305  1.0000
  Br  Br2       1.0  0.7530278903990092  0.7530278543167328  0.24697207553483855  1.0000
  Br  Br3       1.0  0.7530278524645982  0.24697222033688568  0.24697212244543626  1.0000
  Br  Br4       1.0  0.24697220486345525  0.7530278178861185  0.7530278627051118  1.0000
  Br  Br5       1.0  0.24697220126959574  0.7530278462591621  0.24697215129131506  1.0000
  Br  Br6       1.0  0.7530278309763128  0.24697216481118192  0.75302786588865  1.0000
