data_image0
_chemical_formula_structural       Ni2CF6
_chemical_formula_sum              "Ni2 C1 F6"
_cell_length_a       4.831114744511241
_cell_length_b       4.8311154046082985
_cell_length_c       4.83111523422309
_cell_angle_alpha    59.99999756391774
_cell_angle_beta     59.999997158682284
_cell_angle_gamma    59.999999467381166

_space_group_name_H-M_alt    "P 1"
_space_group_IT_number       1

loop_
  _space_group_symop_operation_xyz
  'x, y, z'

loop_
  _atom_site_type_symbol
  _atom_site_label
  _atom_site_symmetry_multiplicity
  _atom_site_fract_x
  _atom_site_fract_y
  _atom_site_fract_z
  _atom_site_occupancy
  Ni  Ni1       1.0  0.2500003695475679  0.24999987370227872  0.24999995799963737  1.0000
  Ni  Ni2       1.0  0.7499999966673676  0.7500001103846834  0.7499999473073636  1.0000
  C   C1        1.0  0.999999998744878  0.9999999822541719  1.7780137314545392e-08  1.0000
  F   F1        1.0  0.22472871677022765  0.2247286657448894  0.7752713481568994  1.0000
  F   F2        1.0  0.775271179313475  0.7752712803153073  0.22472874913163693  1.0000
  F   F3        1.0  0.7752711951078243  0.224728693464838  0.22472875399125972  1.0000
  F   F4        1.0  0.22472871640193717  0.7752713210435531  0.7752712599618394  1.0000
  F   F5        1.0  0.22472863516831734  0.7752712837506119  0.2247287216984187  1.0000
  F   F6        1.0  0.7752712110829304  0.22472876878455472  0.7752712831014784  1.0000
