data_image0
_chemical_formula_structural       Ni2CuI6
_chemical_formula_sum              "Ni2 Cu1 I6"
_cell_length_a       7.281321955658049
_cell_length_b       7.281321974701067
_cell_length_c       7.281321931017111
_cell_angle_alpha    59.999999915310056
_cell_angle_beta     60.00000026339528
_cell_angle_gamma    60.00000049138767

_space_group_name_H-M_alt    "P 1"
_space_group_IT_number       1

loop_
  _space_group_symop_operation_xyz
  'x, y, z'

loop_
  _atom_site_type_symbol
  _atom_site_label
  _atom_site_symmetry_multiplicity
  _atom_site_fract_x
  _atom_site_fract_y
  _atom_site_fract_z
  _atom_site_occupancy
  Ni  Ni1       1.0  0.24999994678662668  0.2500000220285006  0.2500000557883805  1.0000
  Ni  Ni2       1.0  0.7500000092614154  0.7499999685273914  0.7499999668881907  1.0000
  Cu  Cu1       1.0  1.2494318602660856e-08  1.0092218548538383e-08  0.9999999887067315  1.0000
  I   I1        1.0  0.2553403492301542  0.2553403747651883  0.7446596417286235  1.0000
  I   I2        1.0  0.7446596663432068  0.7446595989703396  0.2553403884363871  1.0000
  I   I3        1.0  0.744659621408147  0.2553403529371595  0.25534038430563316  1.0000
  I   I4        1.0  0.25534038295163786  0.7446596544390968  0.7446595893243606  1.0000
  I   I5        1.0  0.25534036771673385  0.74465960751072  0.255340382257399  1.0000
  I   I6        1.0  0.7446596459656912  0.25534040995775487  0.7446595995190661  1.0000
