data_image0
_chemical_formula_structural       Ni2CoF6
_chemical_formula_sum              "Ni2 Co1 F6"
_cell_length_a       5.101789054054708
_cell_length_b       5.101789171825498
_cell_length_c       5.101789046056484
_cell_angle_alpha    60.00000003217268
_cell_angle_beta     60.00000007794363
_cell_angle_gamma    59.999999786964686

_space_group_name_H-M_alt    "P 1"
_space_group_IT_number       1

loop_
  _space_group_symop_operation_xyz
  'x, y, z'

loop_
  _atom_site_type_symbol
  _atom_site_label
  _atom_site_symmetry_multiplicity
  _atom_site_fract_x
  _atom_site_fract_y
  _atom_site_fract_z
  _atom_site_occupancy
  Ni  Ni1       1.0  0.2499999148343192  0.25000004543278675  0.2500000217623973  1.0000
  Ni  Ni2       1.0  0.7499999964891397  0.749999977857547  0.7500000635967331  1.0000
  Co  Co1       1.0  0.999999995312501  4.8012367122991296e-08  0.9999999685370821  1.0000
  F   F1        1.0  0.24963481656850853  0.24963476285805636  0.7503651939503232  1.0000
  F   F2        1.0  0.7503651991660317  0.7503652052180554  0.24963477664592884  1.0000
  F   F3        1.0  0.7503652245939795  0.24963480957665  0.24963477743278198  1.0000
  F   F4        1.0  0.24963480698383386  0.7503651584994615  0.7503652205235745  1.0000
  F   F5        1.0  0.24963485727282642  0.7503651701970369  0.2496347796803108  1.0000
  F   F6        1.0  0.750365191999704  0.24963481948463973  0.7503651907855176  1.0000
