data_image0
_chemical_formula_structural       Ni2CI6
_chemical_formula_sum              "Ni2 C1 I6"
_cell_length_a       7.268187328951824
_cell_length_b       7.268187157418342
_cell_length_c       7.268187092528745
_cell_angle_alpha    60.000000204114244
_cell_angle_beta     59.99999947266203
_cell_angle_gamma    59.999999681368514

_space_group_name_H-M_alt    "P 1"
_space_group_IT_number       1

loop_
  _space_group_symop_operation_xyz
  'x, y, z'

loop_
  _atom_site_type_symbol
  _atom_site_label
  _atom_site_symmetry_multiplicity
  _atom_site_fract_x
  _atom_site_fract_y
  _atom_site_fract_z
  _atom_site_occupancy
  Ni  Ni1       1.0  0.2499999834536963  0.2500000142589909  0.2499999819456064  1.0000
  Ni  Ni2       1.0  0.7500000108943874  0.7499999231365675  0.750000055190189  1.0000
  C   C1        1.0  8.056430871429704e-09  0.9999999662984773  1.419840473025707e-08  1.0000
  I   I1        1.0  0.25250941280558453  0.252509464167031  0.7474905648112167  1.0000
  I   I2        1.0  0.7474905796150765  0.7474905743330952  0.25250941310499364  1.0000
  I   I3        1.0  0.7474905727665888  0.2525094261747347  0.2525094287090203  1.0000
  I   I4        1.0  0.2525094082605586  0.7474905988447825  0.7474905657718282  1.0000
  I   I5        1.0  0.25250944653432045  0.7474905795069086  0.25250941118474807  1.0000
  I   I6        1.0  0.7474905693479656  0.2525094505678373  0.7474905619650576  1.0000
