data_image0
_chemical_formula_structural       Ni2CS6
_chemical_formula_sum              "Ni2 C1 S6"
_cell_length_a       5.710093840046025
_cell_length_b       5.710093777228278
_cell_length_c       5.710093531839636
_cell_angle_alpha    60.000001598825406
_cell_angle_beta     60.00000083978564
_cell_angle_gamma    60.00000185379711

_space_group_name_H-M_alt    "P 1"
_space_group_IT_number       1

loop_
  _space_group_symop_operation_xyz
  'x, y, z'

loop_
  _atom_site_type_symbol
  _atom_site_label
  _atom_site_symmetry_multiplicity
  _atom_site_fract_x
  _atom_site_fract_y
  _atom_site_fract_z
  _atom_site_occupancy
  Ni  Ni1       1.0  0.24999994758652236  0.2500002108224073  0.2499997939656447  1.0000
  Ni  Ni2       1.0  0.7499996123016546  0.749999886050048  0.750000609376663  1.0000
  C   C1        1.0  3.65434821648541e-08  0.9999999571024616  0.9999999961718886  1.0000
  S   S1        1.0  0.22996995604681947  0.22996974169171305  0.7700301056908289  1.0000
  S   S2        1.0  0.7700302018477007  0.7700301020852669  0.22996942993597536  1.0000
  S   S3        1.0  0.7700301819929883  0.22997004074462368  0.22996960052661372  1.0000
  S   S4        1.0  0.22997005501302534  0.7700297901630989  0.7700304904107641  1.0000
  S   S5        1.0  0.22997013930863855  0.770030213978533  0.22996955034288993  1.0000
  S   S6        1.0  0.7700298689351649  0.22997005448408261  0.7700304309442946  1.0000
