data_image0
_chemical_formula_structural       Ni2CuBr6
_chemical_formula_sum              "Ni2 Cu1 Br6"
_cell_length_a       6.8486817985486965
_cell_length_b       6.8486816736579215
_cell_length_c       6.848681709565265
_cell_angle_alpha    60.00000054748535
_cell_angle_beta     60.00000054128759
_cell_angle_gamma    60.000000474326306

_space_group_name_H-M_alt    "P 1"
_space_group_IT_number       1

loop_
  _space_group_symop_operation_xyz
  'x, y, z'

loop_
  _atom_site_type_symbol
  _atom_site_label
  _atom_site_symmetry_multiplicity
  _atom_site_fract_x
  _atom_site_fract_y
  _atom_site_fract_z
  _atom_site_occupancy
  Ni  Ni1       1.0  0.24999997110191222  0.24999997476490346  0.2500000410822135  1.0000
  Ni  Ni2       1.0  0.7500000510303483  0.7499999815200825  0.7499999600655732  1.0000
  Cu  Cu1       1.0  0.9999999724276039  1.7882924880998844e-09  0.9999999793089464  1.0000
  Br  Br1       1.0  0.25151127498492754  0.2515112864176081  0.748488726784992  1.0000
  Br  Br2       1.0  0.7484887482021588  0.7484887324576287  0.2515112732030921  1.0000
  Br  Br3       1.0  0.7484887403525756  0.25151126892965125  0.2515112762110428  1.0000
  Br  Br4       1.0  0.25151124247233697  0.7484887445807067  0.7484887364196223  1.0000
  Br  Br5       1.0  0.2515112519349907  0.7484887246338758  0.25151129047628346  1.0000
  Br  Br6       1.0  0.748488748653029  0.25151127099355336  0.7484887222142925  1.0000
