data_image0
_chemical_formula_structural       Ni2CrCl6
_chemical_formula_sum              "Ni2 Cr1 Cl6"
_cell_length_a       6.521136154469845
_cell_length_b       6.521136307556396
_cell_length_c       6.521136198100465
_cell_angle_alpha    60.00000099084103
_cell_angle_beta     59.999999953852985
_cell_angle_gamma    60.0000002347206

_space_group_name_H-M_alt    "P 1"
_space_group_IT_number       1

loop_
  _space_group_symop_operation_xyz
  'x, y, z'

loop_
  _atom_site_type_symbol
  _atom_site_label
  _atom_site_symmetry_multiplicity
  _atom_site_fract_x
  _atom_site_fract_y
  _atom_site_fract_z
  _atom_site_occupancy
  Ni  Ni1       1.0  0.2500000340540579  0.2499999401401007  0.2499999589974573  1.0000
  Ni  Ni2       1.0  0.7499998643844055  0.7499999706695619  0.7500001645791678  1.0000
  Cr  Cr1       1.0  7.171800683521352e-09  2.6293619688278295e-08  0.999999924995236  1.0000
  Cl  Cl1       1.0  0.2459648949063926  0.2459649121152223  0.7540351377862043  1.0000
  Cl  Cl2       1.0  0.7540350801357076  0.7540350982345726  0.24596490845286245  1.0000
  Cl  Cl3       1.0  0.7540351133600567  0.2459649599225889  0.24596480813637822  1.0000
  Cl  Cl4       1.0  0.2459649066278208  0.754035138698644  0.7540351362241537  1.0000
  Cl  Cl5       1.0  0.24596500524026474  0.7540350632795361  0.24596480231691997  1.0000
  Cl  Cl6       1.0  0.7540350936805997  0.24596488884867043  0.7540351466876043  1.0000
