data_image0
_chemical_formula_structural       Ni2CBr6
_chemical_formula_sum              "Ni2 C1 Br6"
_cell_length_a       6.897526284195183
_cell_length_b       6.897526083804508
_cell_length_c       6.897526272338135
_cell_angle_alpha    60.00000016770305
_cell_angle_beta     59.99999890733276
_cell_angle_gamma    59.99999992176164

_space_group_name_H-M_alt    "P 1"
_space_group_IT_number       1

loop_
  _space_group_symop_operation_xyz
  'x, y, z'

loop_
  _atom_site_type_symbol
  _atom_site_label
  _atom_site_symmetry_multiplicity
  _atom_site_fract_x
  _atom_site_fract_y
  _atom_site_fract_z
  _atom_site_occupancy
  Ni  Ni1       1.0  0.2500000542571124  0.25000003128684534  0.2500000127289447  1.0000
  Ni  Ni2       1.0  0.7500000365393954  0.7500000707773523  0.7499998997245136  1.0000
  C   C1        1.0  0.9999999909361775  7.102516708952174e-09  0.9999999995308578  1.0000
  Br  Br1       1.0  0.2424783109044463  0.2424781528281998  0.7575217734515902  1.0000
  Br  Br2       1.0  0.7575216782491218  0.7575218071856612  0.24247823765178378  1.0000
  Br  Br3       1.0  0.7575217397971317  0.24247821542555403  0.2424782596509122  1.0000
  Br  Br4       1.0  0.24247819074623952  0.7575217747740033  0.7575217859618446  1.0000
  Br  Br5       1.0  0.24247826468235825  0.7575216863750556  0.24247827327988467  1.0000
  Br  Br6       1.0  0.7575217354122109  0.2424782558825137  0.7575217615282661  1.0000
