data_image0
_chemical_formula_structural       Ni2CO6
_chemical_formula_sum              "Ni2 C1 O6"
_cell_length_a       4.452964197797561
_cell_length_b       4.452964158863675
_cell_length_c       4.452964186920434
_cell_angle_alpha    59.99999978301374
_cell_angle_beta     59.999999965976855
_cell_angle_gamma    59.999999574845134

_space_group_name_H-M_alt    "P 1"
_space_group_IT_number       1

loop_
  _space_group_symop_operation_xyz
  'x, y, z'

loop_
  _atom_site_type_symbol
  _atom_site_label
  _atom_site_symmetry_multiplicity
  _atom_site_fract_x
  _atom_site_fract_y
  _atom_site_fract_z
  _atom_site_occupancy
  Ni  Ni1       1.0  0.2500000098695538  0.24999999174419535  0.24999999818294177  1.0000
  Ni  Ni2       1.0  0.7499999893233847  0.7500000027366224  0.7500000031851404  1.0000
  C   C1        1.0  9.168012306294146e-10  0.9999999972495963  0.9999999874426304  1.0000
  O   O1        1.0  0.23830011414314764  0.23830010496230591  0.7616998841795499  1.0000
  O   O2        1.0  0.7616998934313117  0.7616999032705298  0.2383000926475917  1.0000
  O   O3        1.0  0.7616998927544066  0.23830010663737605  0.2383001098456526  1.0000
  O   O4        1.0  0.23830010033552002  0.7616998905938454  0.7616999246384657  1.0000
  O   O5        1.0  0.23830011304862142  0.7616998931679422  0.23830010685360317  1.0000
  O   O6        1.0  0.7616998884228259  0.2383001178152973  0.7616999008438795  1.0000
