data_image0
_chemical_formula_structural       Ni2CoI6
_chemical_formula_sum              "Ni2 Co1 I6"
_cell_length_a       7.284593576745302
_cell_length_b       7.28459357530554
_cell_length_c       7.284593700289423
_cell_angle_alpha    59.999999958227875
_cell_angle_beta     60.00000016259907
_cell_angle_gamma    59.99999994179676

_space_group_name_H-M_alt    "P 1"
_space_group_IT_number       1

loop_
  _space_group_symop_operation_xyz
  'x, y, z'

loop_
  _atom_site_type_symbol
  _atom_site_label
  _atom_site_symmetry_multiplicity
  _atom_site_fract_x
  _atom_site_fract_y
  _atom_site_fract_z
  _atom_site_occupancy
  Ni  Ni1       1.0  0.24999996082270706  0.2499999736091102  0.2500000364975819  1.0000
  Ni  Ni2       1.0  0.749999983289827  0.7500000368357188  0.7499999626404154  1.0000
  Co  Co1       1.0  0.9999999989588028  2.6900495993726757e-08  1.5898314032538114e-08  1.0000
  I   I1        1.0  0.2500310674514778  0.250031036888482  0.7499689570149793  1.0000
  I   I2        1.0  0.7499689307476797  0.7499689634686613  0.2500310462059921  1.0000
  I   I3        1.0  0.7499689895127573  0.2500310340542323  0.2500310650214336  1.0000
  I   I4        1.0  0.2500310542073054  0.7499689343585721  0.7499689272929746  1.0000
  I   I5        1.0  0.25003105036329704  0.7499689159329288  0.2500310709451833  1.0000
  I   I6        1.0  0.7499689632228567  0.2500310810616525  0.7499689221452907  1.0000
