data_image0
_chemical_formula_structural       Ni2CrBr6
_chemical_formula_sum              "Ni2 Cr1 Br6"
_cell_length_a       6.915934681654757
_cell_length_b       6.915934748793551
_cell_length_c       6.915934682774558
_cell_angle_alpha    60.00000073228046
_cell_angle_beta     60.00000127390343
_cell_angle_gamma    60.00000025430647

_space_group_name_H-M_alt    "P 1"
_space_group_IT_number       1

loop_
  _space_group_symop_operation_xyz
  'x, y, z'

loop_
  _atom_site_type_symbol
  _atom_site_label
  _atom_site_symmetry_multiplicity
  _atom_site_fract_x
  _atom_site_fract_y
  _atom_site_fract_z
  _atom_site_occupancy
  Ni  Ni1       1.0  0.25000005446897633  0.25000014242786606  0.24999988286587752  1.0000
  Ni  Ni2       1.0  0.7500000076662898  0.7500000429976781  0.7500000805557586  1.0000
  Cr  Cr1       1.0  5.6295545155838505e-08  0.9999999663528453  0.9999999438517844  1.0000
  Br  Br1       1.0  0.24622656091626205  0.24622658392373056  0.7537734303343929  1.0000
  Br  Br2       1.0  0.7537733986168609  0.7537733783680536  0.24622659329372618  1.0000
  Br  Br3       1.0  0.7537734529325848  0.24622655459980772  0.24622657477770626  1.0000
  Br  Br4       1.0  0.24622653716015488  0.7537733811284334  0.7537734569739294  1.0000
  Br  Br5       1.0  0.2462265456251267  0.7537733811854878  0.24622655254586862  1.0000
  Br  Br6       1.0  0.7537733879868848  0.24622656870997642  0.7537734887950296  1.0000
