data_image0
_chemical_formula_structural       Ni2CuF6
_chemical_formula_sum              "Ni2 Cu1 F6"
_cell_length_a       5.11597496886912
_cell_length_b       5.115974935882183
_cell_length_c       5.1159750390347885
_cell_angle_alpha    60.000000258429196
_cell_angle_beta     59.999999986657215
_cell_angle_gamma    60.00000071892507

_space_group_name_H-M_alt    "P 1"
_space_group_IT_number       1

loop_
  _space_group_symop_operation_xyz
  'x, y, z'

loop_
  _atom_site_type_symbol
  _atom_site_label
  _atom_site_symmetry_multiplicity
  _atom_site_fract_x
  _atom_site_fract_y
  _atom_site_fract_z
  _atom_site_occupancy
  Ni  Ni1       1.0  0.2500000331130609  0.24999993797210868  0.2500000269054819  1.0000
  Ni  Ni2       1.0  0.7500000467854467  0.7500000054332716  0.750000062056044  1.0000
  Cu  Cu1       1.0  2.3642301466720525e-08  0.9999999832422675  0.9999999926483923  1.0000
  F   F1        1.0  0.25414190760681293  0.2541418339110217  0.745858106642325  1.0000
  F   F2        1.0  0.7458580198372061  0.745858174131325  0.2541418796283412  1.0000
  F   F3        1.0  0.7458581640568912  0.25414188112021296  0.2541418276656166  1.0000
  F   F4        1.0  0.25414175510993897  0.7458582059228739  0.7458581388805673  1.0000
  F   F5        1.0  0.25414186064002203  0.7458581130060428  0.25414186327904426  1.0000
  F   F6        1.0  0.7458581803410035  0.25414185912687776  0.7458581076337713  1.0000
