data_image0
_chemical_formula_structural       Ni2CF6
_chemical_formula_sum              "Ni2 C1 F6"
_cell_length_a       4.831185471072094
_cell_length_b       4.831185427974111
_cell_length_c       4.831185389741074
_cell_angle_alpha    60.00000015277252
_cell_angle_beta     60.000000329562695
_cell_angle_gamma    59.99999994091454

_space_group_name_H-M_alt    "P 1"
_space_group_IT_number       1

loop_
  _space_group_symop_operation_xyz
  'x, y, z'

loop_
  _atom_site_type_symbol
  _atom_site_label
  _atom_site_symmetry_multiplicity
  _atom_site_fract_x
  _atom_site_fract_y
  _atom_site_fract_z
  _atom_site_occupancy
  Ni  Ni1       1.0  0.24999998314658822  0.2500000032439888  0.2500000258599576  1.0000
  Ni  Ni2       1.0  0.7500000198875932  0.749999991986396  0.7499999829225263  1.0000
  C   C1        1.0  4.596691620769652e-08  1.2675407392735009e-08  0.9999999541197551  1.0000
  F   F1        1.0  0.2247321070337557  0.22473210823039222  0.7752678939201709  1.0000
  F   F2        1.0  0.775267885135181  0.7752679554471925  0.22473208193156458  1.0000
  F   F3        1.0  0.7752678668708917  0.22473209539128292  0.22473214777993686  1.0000
  F   F4        1.0  0.22473208949633028  0.7752678820935314  0.7752679014883537  1.0000
  F   F5        1.0  0.22473211079905067  0.7752678721606577  0.224732123434209  1.0000
  F   F6        1.0  0.7752678824096481  0.22473209518383058  0.7752678752255694  1.0000
