data_image0
_chemical_formula_structural       Ni2CdCl6
_chemical_formula_sum              "Ni2 Cd1 Cl6"
_cell_length_a       6.569621187923045
_cell_length_b       6.569621172744092
_cell_length_c       6.569621180059493
_cell_angle_alpha    60.000000564680484
_cell_angle_beta     60.00000041099557
_cell_angle_gamma    60.00000061485808

_space_group_name_H-M_alt    "P 1"
_space_group_IT_number       1

loop_
  _space_group_symop_operation_xyz
  'x, y, z'

loop_
  _atom_site_type_symbol
  _atom_site_label
  _atom_site_symmetry_multiplicity
  _atom_site_fract_x
  _atom_site_fract_y
  _atom_site_fract_z
  _atom_site_occupancy
  Ni  Ni1       1.0  0.2500000809226596  0.25000001373971126  0.24999994384738444  1.0000
  Ni  Ni2       1.0  0.7499999880173194  0.7500000356263679  0.7499999099605008  1.0000
  Cd  Cd1       1.0  2.0591992169019964e-09  1.4914039528224397e-08  1.2823589640449356e-08  1.0000
  Cl  Cl1       1.0  0.26348962805991577  0.263489569389424  0.7365103986371893  1.0000
  Cl  Cl2       1.0  0.7365103660663205  0.7365104091349681  0.26348960562845697  1.0000
  Cl  Cl3       1.0  0.736510366572976  0.26348956972926246  0.26348963101706036  1.0000
  Cl  Cl4       1.0  0.26348962984398944  0.7365103808313059  0.7365104210947622  1.0000
  Cl  Cl5       1.0  0.2634895685465435  0.7365103801339177  0.26348965000510066  1.0000
  Cl  Cl6       1.0  0.7365103676660175  0.2634896244900436  0.736510424965279  1.0000
