data_image0
_chemical_formula_structural       Ni2CdBr6
_chemical_formula_sum              "Ni2 Cd1 Br6"
_cell_length_a       7.034851444051539
_cell_length_b       7.034851338682804
_cell_length_c       7.03485140172685
_cell_angle_alpha    59.999999967050925
_cell_angle_beta     59.999999572482395
_cell_angle_gamma    59.99999984223148

_space_group_name_H-M_alt    "P 1"
_space_group_IT_number       1

loop_
  _space_group_symop_operation_xyz
  'x, y, z'

loop_
  _atom_site_type_symbol
  _atom_site_label
  _atom_site_symmetry_multiplicity
  _atom_site_fract_x
  _atom_site_fract_y
  _atom_site_fract_z
  _atom_site_occupancy
  Ni  Ni1       1.0  0.2500000105168713  0.2500000249682742  0.24999996154785808  1.0000
  Ni  Ni2       1.0  0.7499999035384948  0.7500000453083716  0.7499998781582119  1.0000
  Cd  Cd1       1.0  1.2351742867913918e-08  1.2186773461706688e-08  0.9999999436644237  1.0000
  Br  Br1       1.0  0.264139795254244  0.2641397875388925  0.7358602161622151  1.0000
  Br  Br2       1.0  0.7358602130095776  0.7358601626109855  0.26413987247103643  1.0000
  Br  Br3       1.0  0.7358602079291071  0.2641397524068216  0.26413982779854916  1.0000
  Br  Br4       1.0  0.2641398091874384  0.7358602499720867  0.7358602331368137  1.0000
  Br  Br5       1.0  0.26413981622497446  0.7358601934761948  0.2641398034459578  1.0000
  Br  Br6       1.0  0.7358602283317001  0.26413977582432796  0.7358602617300273  1.0000
