data_image0
_chemical_formula_structural       Ni2CCl6
_chemical_formula_sum              "Ni2 C1 Cl6"
_cell_length_a       6.493317985182324
_cell_length_b       6.493318623070392
_cell_length_c       6.493318534870734
_cell_angle_alpha    60.00000040616006
_cell_angle_beta     59.99999799225732
_cell_angle_gamma    59.99999944220666

_space_group_name_H-M_alt    "P 1"
_space_group_IT_number       1

loop_
  _space_group_symop_operation_xyz
  'x, y, z'

loop_
  _atom_site_type_symbol
  _atom_site_label
  _atom_site_symmetry_multiplicity
  _atom_site_fract_x
  _atom_site_fract_y
  _atom_site_fract_z
  _atom_site_occupancy
  Ni  Ni1       1.0  0.2500002527011429  0.2499998756706041  0.24999969737810906  1.0000
  Ni  Ni2       1.0  0.7499998284239482  0.7500002607621478  0.7499994834259374  1.0000
  C   C1        1.0  0.9999996954406498  2.734934477940204e-07  0.9999996151213592  1.0000
  Cl  Cl1       1.0  0.24082222248624416  0.2408222529124715  0.7591778984384386  1.0000
  Cl  Cl2       1.0  0.7591777484958873  0.759177691131791  0.24082240847954922  1.0000
  Cl  Cl3       1.0  0.7591776418464385  0.24082220215355327  0.24082247307974355  1.0000
  Cl  Cl4       1.0  0.2408223324210104  0.7591778494019233  0.7591778200211821  1.0000
  Cl  Cl5       1.0  0.24082239886926374  0.7591775682838339  0.24082255145322945  1.0000
  Cl  Cl6       1.0  0.7591778749494474  0.24082200607273715  0.759178078418697  1.0000
