data_image0
_chemical_formula_structural       Ni2CoBr6
_chemical_formula_sum              "Ni2 Co1 Br6"
_cell_length_a       6.8554649041015026
_cell_length_b       6.855464975312005
_cell_length_c       6.855464941550146
_cell_angle_alpha    60.00000015292674
_cell_angle_beta     59.99999958222141
_cell_angle_gamma    60.000000195685935

_space_group_name_H-M_alt    "P 1"
_space_group_IT_number       1

loop_
  _space_group_symop_operation_xyz
  'x, y, z'

loop_
  _atom_site_type_symbol
  _atom_site_label
  _atom_site_symmetry_multiplicity
  _atom_site_fract_x
  _atom_site_fract_y
  _atom_site_fract_z
  _atom_site_occupancy
  Ni  Ni1       1.0  0.2500000259153517  0.24999997662127266  0.2499999908583843  1.0000
  Ni  Ni2       1.0  0.7500000045161251  0.7500001192352994  0.7500000545386433  1.0000
  Co  Co1       1.0  0.9999999672821306  3.7516991628403074e-08  1.0728651345196617e-08  1.0000
  Br  Br1       1.0  0.24815837470684918  0.24815830541039774  0.7518416680040455  1.0000
  Br  Br2       1.0  0.7518416477992172  0.7518416171534035  0.24815830608745293  1.0000
  Br  Br3       1.0  0.7518416566065975  0.24815832853542402  0.24815836202149094  1.0000
  Br  Br4       1.0  0.2481583152317222  0.7518416601297435  0.7518416276922423  1.0000
  Br  Br5       1.0  0.24815835511964468  0.7518416400837695  0.24815836806607453  1.0000
  Br  Br6       1.0  0.7518416612269976  0.2481583110644063  0.751841612317232  1.0000
