data_image0
_chemical_formula_structural       Ni2FeI6
_chemical_formula_sum              "Ni2 Fe1 I6"
_cell_length_a       7.301805095312315
_cell_length_b       7.301805087886214
_cell_length_c       7.301804643230353
_cell_angle_alpha    60.00000071803496
_cell_angle_beta     60.00000140051846
_cell_angle_gamma    60.000001030015696

_space_group_name_H-M_alt    "P 1"
_space_group_IT_number       1

loop_
  _space_group_symop_operation_xyz
  'x, y, z'

loop_
  _atom_site_type_symbol
  _atom_site_label
  _atom_site_symmetry_multiplicity
  _atom_site_fract_x
  _atom_site_fract_y
  _atom_site_fract_z
  _atom_site_occupancy
  Ni  Ni1       1.0  0.2500000427988873  0.24999993241669688  0.25000004958382716  1.0000
  Ni  Ni2       1.0  0.7499999349981958  0.7500001260044051  0.7500000249230525  1.0000
  Fe  Fe1       1.0  0.9999999488363982  1.6773184410248543e-09  0.9999999617450172  1.0000
  I   I1        1.0  0.23204782818867006  0.23204781376978334  0.7679521655825322  1.0000
  I   I2        1.0  0.7679522493319425  0.7679522396193669  0.2320477191480151  1.0000
  I   I3        1.0  0.7679521281255852  0.232047776202325  0.2320478465828948  1.0000
  I   I4        1.0  0.23204785326736413  0.767952176547748  0.7679522050072466  1.0000
  I   I5        1.0  0.23204784769148576  0.7679521847895923  0.2320477552270043  1.0000
  I   I6        1.0  0.7679521863669873  0.23204774280071194  0.7679522894578821  1.0000
