data_image0
_chemical_formula_structural       Ni2FeF6
_chemical_formula_sum              "Ni2 Fe1 F6"
_cell_length_a       5.178497157437833
_cell_length_b       5.17849718608669
_cell_length_c       5.178497297501371
_cell_angle_alpha    59.99999966900897
_cell_angle_beta     60.00000031202579
_cell_angle_gamma    59.99999924094711

_space_group_name_H-M_alt    "P 1"
_space_group_IT_number       1

loop_
  _space_group_symop_operation_xyz
  'x, y, z'

loop_
  _atom_site_type_symbol
  _atom_site_label
  _atom_site_symmetry_multiplicity
  _atom_site_fract_x
  _atom_site_fract_y
  _atom_site_fract_z
  _atom_site_occupancy
  Ni  Ni1       1.0  0.249999939768719  0.24999986650442022  0.25000009044866317  1.0000
  Ni  Ni2       1.0  0.7500000283814175  0.7500000559695496  0.7499998149922419  1.0000
  Fe  Fe1       1.0  0.9999999551103024  5.439634588056518e-08  3.0005793887437485e-08  1.0000
  F   F1        1.0  0.2544102587471339  0.25441016831099783  0.745589770695018  1.0000
  F   F2        1.0  0.7455897873995394  0.7455898345749602  0.2544102660273972  1.0000
  F   F3        1.0  0.7455898030628929  0.25441016190181026  0.25441027488864204  1.0000
  F   F4        1.0  0.25441022434498656  0.7455898102383876  0.7455898020245472  1.0000
  F   F5        1.0  0.25441020114703805  0.7455898150883937  0.2544102346006359  1.0000
  F   F6        1.0  0.7455898304035035  0.2544102516541439  0.7455897330771267  1.0000
