data_image0
_chemical_formula_structural       Ni2GeCl6
_chemical_formula_sum              "Ni2 Ge1 Cl6"
_cell_length_a       6.593676085089585
_cell_length_b       6.593676104694763
_cell_length_c       6.59367609693238
_cell_angle_alpha    59.99999886411284
_cell_angle_beta     59.99999893650631
_cell_angle_gamma    59.999998243618094

_space_group_name_H-M_alt    "P 1"
_space_group_IT_number       1

loop_
  _space_group_symop_operation_xyz
  'x, y, z'

loop_
  _atom_site_type_symbol
  _atom_site_label
  _atom_site_symmetry_multiplicity
  _atom_site_fract_x
  _atom_site_fract_y
  _atom_site_fract_z
  _atom_site_occupancy
  Ni  Ni1       1.0  0.25000001065590166  0.2500000073922484  0.24999998860837128  1.0000
  Ni  Ni2       1.0  0.7499999575846769  0.7500000351789252  0.7499997766078604  1.0000
  Ge  Ge1       1.0  1.4097797163956184e-08  2.600435321796022e-08  0.9999999966315759  1.0000
  Cl  Cl1       1.0  0.2433823929130885  0.24338235723826296  0.7566176365478043  1.0000
  Cl  Cl2       1.0  0.756617625372513  0.7566175404515085  0.24338250973964667  1.0000
  Cl  Cl3       1.0  0.756617605989333  0.24338236837252944  0.24338243346519936  1.0000
  Cl  Cl4       1.0  0.24338243543242352  0.7566176017579417  0.7566176043696365  1.0000
  Cl  Cl5       1.0  0.24338236149885717  0.7566176605121548  0.24338242566097332  1.0000
  Cl  Cl6       1.0  0.7566175905557824  0.243382404348462  0.7566176307248136  1.0000
