data_image0
_chemical_formula_structural       Ni2GeF6
_chemical_formula_sum              "Ni2 Ge1 F6"
_cell_length_a       5.142818665454116
_cell_length_b       5.142818476996971
_cell_length_c       5.14281864354339
_cell_angle_alpha    60.00000033021867
_cell_angle_beta     59.99999975770292
_cell_angle_gamma    59.99999986536653

_space_group_name_H-M_alt    "P 1"
_space_group_IT_number       1

loop_
  _space_group_symop_operation_xyz
  'x, y, z'

loop_
  _atom_site_type_symbol
  _atom_site_label
  _atom_site_symmetry_multiplicity
  _atom_site_fract_x
  _atom_site_fract_y
  _atom_site_fract_z
  _atom_site_occupancy
  Ni  Ni1       1.0  0.2499999846641371  0.250000024768779  0.25000005714112805  1.0000
  Ni  Ni2       1.0  0.749999959436337  0.7500000242955429  0.7500000459279338  1.0000
  Ge  Ge1       1.0  3.184234527749573e-08  0.9999999785668033  0.9999999695174584  1.0000
  F   F1        1.0  0.2457783123870266  0.2457782819562758  0.7542216904195058  1.0000
  F   F2        1.0  0.7542217078268951  0.7542217004269888  0.24577827959906587  1.0000
  F   F3        1.0  0.754221705015859  0.24577829145504934  0.2457782700627864  1.0000
  F   F4        1.0  0.2457782701331394  0.7542217385575405  0.7542217083958799  1.0000
  F   F5        1.0  0.24577830900944678  0.7542216749696052  0.24577827733320468  1.0000
  F   F6        1.0  0.754221716103606  0.24577828598046284  0.7542216990079402  1.0000
