data_image0
_chemical_formula_structural       Ni2GeBr6
_chemical_formula_sum              "Ni2 Ge1 Br6"
_cell_length_a       6.99053351426323
_cell_length_b       6.990533545326147
_cell_length_c       6.990533476215302
_cell_angle_alpha    59.9999999128998
_cell_angle_beta     59.999998988136014
_cell_angle_gamma    59.999999072840126

_space_group_name_H-M_alt    "P 1"
_space_group_IT_number       1

loop_
  _space_group_symop_operation_xyz
  'x, y, z'

loop_
  _atom_site_type_symbol
  _atom_site_label
  _atom_site_symmetry_multiplicity
  _atom_site_fract_x
  _atom_site_fract_y
  _atom_site_fract_z
  _atom_site_occupancy
  Ni  Ni1       1.0  0.25000003051908115  0.24999987825237208  0.25000007718269374  1.0000
  Ni  Ni2       1.0  0.7500000355073289  0.7499999466139816  0.7500000149532341  1.0000
  Ge  Ge1       1.0  0.9999999841833317  0.9999999632078981  1.0568819474997992e-08  1.0000
  Br  Br1       1.0  0.2459167033429677  0.24591669946862735  0.7540832932897306  1.0000
  Br  Br2       1.0  0.7540833025970903  0.754083360166378  0.24591665714581973  1.0000
  Br  Br3       1.0  0.7540833129881492  0.2459167177510865  0.24591665821137787  1.0000
  Br  Br4       1.0  0.24591662452646867  0.7540833786760217  0.7540833194848897  1.0000
  Br  Br5       1.0  0.24591666987439706  0.7540833402288935  0.24591666865534553  1.0000
  Br  Br6       1.0  0.7540833421890822  0.24591671590210204  0.7540833033585949  1.0000
