data_image0
_chemical_formula_structural       Ni2MnCl6
_chemical_formula_sum              "Ni2 Mn1 Cl6"
_cell_length_a       6.529338950904629
_cell_length_b       6.529339080090566
_cell_length_c       6.529339091031841
_cell_angle_alpha    59.99999973508577
_cell_angle_beta     59.999999765711166
_cell_angle_gamma    59.99999949915601

_space_group_name_H-M_alt    "P 1"
_space_group_IT_number       1

loop_
  _space_group_symop_operation_xyz
  'x, y, z'

loop_
  _atom_site_type_symbol
  _atom_site_label
  _atom_site_symmetry_multiplicity
  _atom_site_fract_x
  _atom_site_fract_y
  _atom_site_fract_z
  _atom_site_occupancy
  Ni  Ni1       1.0  0.24999994457303493  0.2500000645120385  0.2499999813316093  1.0000
  Ni  Ni2       1.0  0.7499998783113094  0.7499998952908674  0.7500000922630303  1.0000
  Mn  Mn1       1.0  0.9999999743830695  4.501815068047843e-08  1.3272618402364845e-08  1.0000
  Cl  Cl1       1.0  0.24434388549891964  0.2443438526013365  0.7556561496619196  1.0000
  Cl  Cl2       1.0  0.7556561729150955  0.755656090319761  0.2443438345189211  1.0000
  Cl  Cl3       1.0  0.7556561574047791  0.24434390425906716  0.24434380358240498  1.0000
  Cl  Cl4       1.0  0.2443439193713475  0.7556561268225751  0.7556561457156906  1.0000
  Cl  Cl5       1.0  0.2443438860381782  0.7556561345830771  0.24434383677170846  1.0000
  Cl  Cl6       1.0  0.7556561760721325  0.24434389274705276  0.7556561278612457  1.0000
