data_image0
_chemical_formula_structural       Ni2MgCl6
_chemical_formula_sum              "Ni2 Mg1 Cl6"
_cell_length_a       6.473846603564438
_cell_length_b       6.473846741181277
_cell_length_c       6.473846699179952
_cell_angle_alpha    59.999999227588205
_cell_angle_beta     59.99999922877198
_cell_angle_gamma    60.000000072605644

_space_group_name_H-M_alt    "P 1"
_space_group_IT_number       1

loop_
  _space_group_symop_operation_xyz
  'x, y, z'

loop_
  _atom_site_type_symbol
  _atom_site_label
  _atom_site_symmetry_multiplicity
  _atom_site_fract_x
  _atom_site_fract_y
  _atom_site_fract_z
  _atom_site_occupancy
  Ni  Ni1       1.0  0.25000009643174764  0.25000005864213787  0.2499999185828054  1.0000
  Ni  Ni2       1.0  0.749999956839886  0.749999931879717  0.750000271066917  1.0000
  Mg  Mg1       1.0  0.9999999814248023  7.567339280709898e-09  5.50392918037851e-09  1.0000
  Cl  Cl1       1.0  0.257510839249787  0.25751094058060814  0.7424891015617846  1.0000
  Cl  Cl2       1.0  0.7424891291274174  0.7424890745351028  0.25751078304338554  1.0000
  Cl  Cl3       1.0  0.7424890864038862  0.2575109178453241  0.257510857364473  1.0000
  Cl  Cl4       1.0  0.25751090274637484  0.7424890991622211  0.7424890869633787  1.0000
  Cl  Cl5       1.0  0.2575109509929394  0.742489054883031  0.2575108323439434  1.0000
  Cl  Cl6       1.0  0.7424890462656398  0.2575109110449735  0.7424891520056401  1.0000
