data_image0
_chemical_formula_structural       Ni2MgF6
_chemical_formula_sum              "Ni2 Mg1 F6"
_cell_length_a       5.016741068798181
_cell_length_b       5.016741049412903
_cell_length_c       5.016741007511154
_cell_angle_alpha    60.000000532871574
_cell_angle_beta     60.000000454800386
_cell_angle_gamma    60.000001916089175

_space_group_name_H-M_alt    "P 1"
_space_group_IT_number       1

loop_
  _space_group_symop_operation_xyz
  'x, y, z'

loop_
  _atom_site_type_symbol
  _atom_site_label
  _atom_site_symmetry_multiplicity
  _atom_site_fract_x
  _atom_site_fract_y
  _atom_site_fract_z
  _atom_site_occupancy
  Ni  Ni1       1.0  0.24999986504476493  0.25000012806499955  0.2499999554372126  1.0000
  Ni  Ni2       1.0  0.7499999405842095  0.7499998104858212  0.7500001159874323  1.0000
  Mg  Mg1       1.0  0.9999999899794502  2.4413154325140253e-09  0.9999999818630319  1.0000
  F   F1        1.0  0.2562775742828636  0.25627753092828875  0.7437224484856352  1.0000
  F   F2        1.0  0.7437224853223218  0.7437224466835878  0.25627753422682886  1.0000
  F   F3        1.0  0.7437224651943823  0.25627765405786135  0.25627745165891586  1.0000
  F   F4        1.0  0.2562776298656587  0.7437223552911197  0.7437225393174131  1.0000
  F   F5        1.0  0.2562775529613578  0.7437224540606209  0.2562775862722492  1.0000
  F   F6        1.0  0.743722509990627  0.2562775894667791  0.7437223837356389  1.0000
