data_image0
_chemical_formula_structural       Ni2MgBr6
_chemical_formula_sum              "Ni2 Mg1 Br6"
_cell_length_a       6.958865708366251
_cell_length_b       6.95886563254855
_cell_length_c       6.958865603617359
_cell_angle_alpha    60.00000016574622
_cell_angle_beta     60.00000075271518
_cell_angle_gamma    59.99999983895797

_space_group_name_H-M_alt    "P 1"
_space_group_IT_number       1

loop_
  _space_group_symop_operation_xyz
  'x, y, z'

loop_
  _atom_site_type_symbol
  _atom_site_label
  _atom_site_symmetry_multiplicity
  _atom_site_fract_x
  _atom_site_fract_y
  _atom_site_fract_z
  _atom_site_occupancy
  Ni  Ni1       1.0  0.2500000733091152  0.25000003127963205  0.2499999695356434  1.0000
  Ni  Ni2       1.0  0.7500000420635241  0.7499999653605203  0.750000106325519  1.0000
  Mg  Mg1       1.0  0.9999999716908557  5.279933319080299e-09  3.1632826988457387e-08  1.0000
  Br  Br1       1.0  0.2581708794540108  0.25817092831549315  0.7418291090807352  1.0000
  Br  Br2       1.0  0.7418290952442603  0.7418291070441703  0.2581708740562728  1.0000
  Br  Br3       1.0  0.7418290970872572  0.25817091511395157  0.25817085691771985  1.0000
  Br  Br4       1.0  0.2581709065413572  0.7418290533665571  0.7418290805279818  1.0000
  Br  Br5       1.0  0.25817088095893437  0.741829106476814  0.2581708770944103  1.0000
  Br  Br6       1.0  0.7418290512008701  0.25817089720325  0.741829108663251  1.0000
