data_image0
_chemical_formula_structural       Ni2NbBr6
_chemical_formula_sum              "Ni2 Nb1 Br6"
_cell_length_a       7.207901459835149
_cell_length_b       7.2079015907471895
_cell_length_c       7.207901530891236
_cell_angle_alpha    60.000001080728815
_cell_angle_beta     60.0000005660774
_cell_angle_gamma    60.00000065479085

_space_group_name_H-M_alt    "P 1"
_space_group_IT_number       1

loop_
  _space_group_symop_operation_xyz
  'x, y, z'

loop_
  _atom_site_type_symbol
  _atom_site_label
  _atom_site_symmetry_multiplicity
  _atom_site_fract_x
  _atom_site_fract_y
  _atom_site_fract_z
  _atom_site_occupancy
  Ni  Ni1       1.0  0.24999998639072624  0.2500000157013752  0.25000000279435886  1.0000
  Ni  Ni2       1.0  0.7500000363426853  0.7500000606974834  0.7499999116685904  1.0000
  Nb  Nb1       1.0  0.9999999735101958  1.6991697720798248e-08  0.9999999770017263  1.0000
  Br  Br1       1.0  0.24855814691819705  0.24855813369899393  0.7514418530462379  1.0000
  Br  Br2       1.0  0.7514418738107002  0.7514418237579804  0.24855814824987024  1.0000
  Br  Br3       1.0  0.7514418420237061  0.24855812215526718  0.24855813074126748  1.0000
  Br  Br4       1.0  0.24855811252093335  0.7514418896751405  0.7514419042075797  1.0000
  Br  Br5       1.0  0.24855811730129074  0.7514418137112109  0.24855815393390948  1.0000
  Br  Br6       1.0  0.7514419139946615  0.24855812165655666  0.7514419169421266  1.0000
