data_image0
_chemical_formula_structural       Ni2NbCl6
_chemical_formula_sum              "Ni2 Nb1 Cl6"
_cell_length_a       6.788813249492197
_cell_length_b       6.7888132716734395
_cell_length_c       6.788813139996218
_cell_angle_alpha    59.99999971916246
_cell_angle_beta     59.99999987522437
_cell_angle_gamma    60.000000243383916

_space_group_name_H-M_alt    "P 1"
_space_group_IT_number       1

loop_
  _space_group_symop_operation_xyz
  'x, y, z'

loop_
  _atom_site_type_symbol
  _atom_site_label
  _atom_site_symmetry_multiplicity
  _atom_site_fract_x
  _atom_site_fract_y
  _atom_site_fract_z
  _atom_site_occupancy
  Ni  Ni1       1.0  0.2500000971705201  0.24999995832467173  0.24999993244072144  1.0000
  Ni  Ni2       1.0  0.7500000228037547  0.7499999922381273  0.7499998450567925  1.0000
  Nb  Nb1       1.0  0.9999999750703448  2.8865012537113595e-08  0.9999999759371484  1.0000
  Cl  Cl1       1.0  0.24783608983233493  0.24783615722659827  0.7521639044435108  1.0000
  Cl  Cl2       1.0  0.752163805881254  0.7521638691068558  0.2478361903459209  1.0000
  Cl  Cl3       1.0  0.7521638310092206  0.24783614861200506  0.24783617362049634  1.0000
  Cl  Cl4       1.0  0.24783613696703807  0.7521638344239306  0.7521639125784059  1.0000
  Cl  Cl5       1.0  0.24783619541159513  0.7521638222066582  0.2478361874944733  1.0000
  Cl  Cl6       1.0  0.7521638409774508  0.24783620051866956  0.752163880005615  1.0000
