data_image0
_chemical_formula_structural       Ni2NbI6
_chemical_formula_sum              "Ni2 Nb1 I6"
_cell_length_a       7.738622792987244
_cell_length_b       7.738622987204685
_cell_length_c       7.738622945048834
_cell_angle_alpha    59.99999966428133
_cell_angle_beta     60.00000000375854
_cell_angle_gamma    60.00000057881409

_space_group_name_H-M_alt    "P 1"
_space_group_IT_number       1

loop_
  _space_group_symop_operation_xyz
  'x, y, z'

loop_
  _atom_site_type_symbol
  _atom_site_label
  _atom_site_symmetry_multiplicity
  _atom_site_fract_x
  _atom_site_fract_y
  _atom_site_fract_z
  _atom_site_occupancy
  Ni  Ni1       1.0  0.24999998449886232  0.2499999978155081  0.25000002428368223  1.0000
  Ni  Ni2       1.0  0.750000019602723  0.7499999697069354  0.7500000477911147  1.0000
  Nb  Nb1       1.0  9.948398559477926e-09  0.9999999477729038  1.8554909914975704e-08  1.0000
  I   I1        1.0  0.2517439652591011  0.2517440067559089  0.7482560045567974  1.0000
  I   I2        1.0  0.7482560190672574  0.7482560066630743  0.25174396141753425  1.0000
  I   I3        1.0  0.7482559725494103  0.25174405024987334  0.2517440097683341  1.0000
  I   I4        1.0  0.25174401491116855  0.7482560074830097  0.7482559570341091  1.0000
  I   I5        1.0  0.25174400535002067  0.7482560084482136  0.25174399308089296  1.0000
  I   I6        1.0  0.7482560058346178  0.2517440049707696  0.7482559866009098  1.0000
