data_image0
_chemical_formula_structural       Ni2PSe6
_chemical_formula_sum              "Ni2 P1 Se6"
_cell_length_a       6.211100925485987
_cell_length_b       6.211100827478683
_cell_length_c       6.211100858991828
_cell_angle_alpha    59.99999992315755
_cell_angle_beta     60.00000020720018
_cell_angle_gamma    59.999999880093796

_space_group_name_H-M_alt    "P 1"
_space_group_IT_number       1

loop_
  _space_group_symop_operation_xyz
  'x, y, z'

loop_
  _atom_site_type_symbol
  _atom_site_label
  _atom_site_symmetry_multiplicity
  _atom_site_fract_x
  _atom_site_fract_y
  _atom_site_fract_z
  _atom_site_occupancy
  Ni  Ni1       1.0  0.24999995521476834  0.2499999885612535  0.2500000441876469  1.0000
  Ni  Ni2       1.0  0.7500000177321463  0.7500000169522355  0.7499999197933648  1.0000
  P   P1        1.0  6.759729144176064e-09  3.549355965398124e-08  4.6336843634699206e-09  1.0000
  Se  Se1       1.0  0.28615829977285867  0.28615830395012054  0.7138417046199151  1.0000
  Se  Se2       1.0  0.7138416833523475  0.7138416877603175  0.2861583255742978  1.0000
  Se  Se3       1.0  0.7138417016343902  0.2861582767075626  0.2861583162813567  1.0000
  Se  Se4       1.0  0.28615832885093917  0.7138417011998246  0.7138416729840119  1.0000
  Se  Se5       1.0  0.2861582891487182  0.7138416827744049  0.28615832025982857  1.0000
  Se  Se6       1.0  0.7138417176001632  0.2861583049923045  0.7138416856042265  1.0000
