data_image0
_chemical_formula_structural       Ni2PdI6
_chemical_formula_sum              "Ni2 Pd1 I6"
_cell_length_a       7.397078541206099
_cell_length_b       7.397078468003938
_cell_length_c       7.397078384379426
_cell_angle_alpha    60.00000017078021
_cell_angle_beta     60.000000393682626
_cell_angle_gamma    59.99999950679628

_space_group_name_H-M_alt    "P 1"
_space_group_IT_number       1

loop_
  _space_group_symop_operation_xyz
  'x, y, z'

loop_
  _atom_site_type_symbol
  _atom_site_label
  _atom_site_symmetry_multiplicity
  _atom_site_fract_x
  _atom_site_fract_y
  _atom_site_fract_z
  _atom_site_occupancy
  Ni  Ni1       1.0  0.25000001532753013  0.24999998696452647  0.249999980018283  1.0000
  Ni  Ni2       1.0  0.749999982973542  0.7499999906964374  0.7500000445304753  1.0000
  Pd  Pd1       1.0  9.444579671185954e-09  2.3180000458334874e-08  0.9999999377236167  1.0000
  I   I1        1.0  0.256337617356766  0.2563376071046063  0.7436623807800998  1.0000
  I   I2        1.0  0.7436623598150343  0.743662387113501  0.2563375987387445  1.0000
  I   I3        1.0  0.7436623968890196  0.25633762294080986  0.2563375781945808  1.0000
  I   I4        1.0  0.2563375636309452  0.7436624259158698  0.7436624431657242  1.0000
  I   I5        1.0  0.25633763420948663  0.7436623966689897  0.25633759062947625  1.0000
  I   I6        1.0  0.743662417545115  0.25633756112340206  0.7436624468682752  1.0000
