data_image0
_chemical_formula_structural       Ni2PO6
_chemical_formula_sum              "Ni2 P1 O6"
_cell_length_a       4.402981525555504
_cell_length_b       4.4029815438064395
_cell_length_c       4.402981633752389
_cell_angle_alpha    59.99999874029776
_cell_angle_beta     60.00000017644231
_cell_angle_gamma    60.00000014401779

_space_group_name_H-M_alt    "P 1"
_space_group_IT_number       1

loop_
  _space_group_symop_operation_xyz
  'x, y, z'

loop_
  _atom_site_type_symbol
  _atom_site_label
  _atom_site_symmetry_multiplicity
  _atom_site_fract_x
  _atom_site_fract_y
  _atom_site_fract_z
  _atom_site_occupancy
  Ni  Ni1       1.0  0.2500000290308003  0.2499999984532272  0.24999999000458922  1.0000
  Ni  Ni2       1.0  0.7499999689189134  0.7500000037045593  0.7500000203856954  1.0000
  P   P1        1.0  3.194775887110537e-08  0.9999999749653646  0.9999999715603682  1.0000
  O   O1        1.0  0.26433654294778786  0.26433655049062965  0.7356634804926749  1.0000
  O   O2        1.0  0.7356634642467187  0.7356634711385405  0.26433652008189773  1.0000
  O   O3        1.0  0.7356634071630627  0.2643365732328006  0.2643365387768687  1.0000
  O   O4        1.0  0.2643365161100899  0.735663448396369  0.7356634901312515  1.0000
  O   O5        1.0  0.26433656316207904  0.7356634504967774  0.2643365142701352  1.0000
  O   O6        1.0  0.7356634496229737  0.26433650715499024  0.7356634973283602  1.0000
