data_image0
_chemical_formula_structural       Ni2PdBr6
_chemical_formula_sum              "Ni2 Pd1 Br6"
_cell_length_a       6.986299667178802
_cell_length_b       6.9862996499252565
_cell_length_c       6.986299641547053
_cell_angle_alpha    59.999999810993636
_cell_angle_beta     60.000000023409186
_cell_angle_gamma    59.9999994108342

_space_group_name_H-M_alt    "P 1"
_space_group_IT_number       1

loop_
  _space_group_symop_operation_xyz
  'x, y, z'

loop_
  _atom_site_type_symbol
  _atom_site_label
  _atom_site_symmetry_multiplicity
  _atom_site_fract_x
  _atom_site_fract_y
  _atom_site_fract_z
  _atom_site_occupancy
  Ni  Ni1       1.0  0.2500000622615417  0.24999994353225535  0.2499999877870127  1.0000
  Ni  Ni2       1.0  0.7499999387947583  0.7499999498052977  0.7500001193595714  1.0000
  Pd  Pd1       1.0  0.9999999741222406  2.8049066290780693e-08  0.9999999459535491  1.0000
  Br  Br1       1.0  0.2515295279915195  0.2515295175885888  0.7484704749362254  1.0000
  Br  Br2       1.0  0.7484704651988312  0.748470528265761  0.2515294754339334  1.0000
  Br  Br3       1.0  0.7484704876411126  0.25152955588274517  0.25152947775569356  1.0000
  Br  Br4       1.0  0.2515295049648825  0.7484704917246712  0.7484705221281613  1.0000
  Br  Br5       1.0  0.25152953911163095  0.7484704998412326  0.25152946953064087  1.0000
  Br  Br6       1.0  0.748470501460173  0.2515294881619184  0.7484705247214594  1.0000
