data_image0
_chemical_formula_structural       Ni2PCl6
_chemical_formula_sum              "Ni2 P1 Cl6"
_cell_length_a       6.667600127309574
_cell_length_b       6.667599814242692
_cell_length_c       6.667600074625536
_cell_angle_alpha    59.999999516945124
_cell_angle_beta     59.999998479484
_cell_angle_gamma    60.00000074908483

_space_group_name_H-M_alt    "P 1"
_space_group_IT_number       1

loop_
  _space_group_symop_operation_xyz
  'x, y, z'

loop_
  _atom_site_type_symbol
  _atom_site_label
  _atom_site_symmetry_multiplicity
  _atom_site_fract_x
  _atom_site_fract_y
  _atom_site_fract_z
  _atom_site_occupancy
  Ni  Ni1       1.0  0.24999996032558092  0.25000015688123634  0.24999988146921887  1.0000
  Ni  Ni2       1.0  0.749999855269968  0.7500000022443613  0.7500001539239675  1.0000
  P   P1        1.0  2.874142746043126e-08  0.9999999761208177  0.9999999780716067  1.0000
  Cl  Cl1       1.0  0.2403455028388077  0.24034552820335706  0.7596544925161256  1.0000
  Cl  Cl2       1.0  0.7596544936032615  0.75965441049902  0.2403455311698168  1.0000
  Cl  Cl3       1.0  0.7596545425621164  0.24034553045931675  0.2403455055639119  1.0000
  Cl  Cl4       1.0  0.24034554137978756  0.7596544211010838  0.7596544784416304  1.0000
  Cl  Cl5       1.0  0.2403456146644745  0.7596544422329037  0.2403454862987231  1.0000
  Cl  Cl6       1.0  0.7596544690673253  0.24034552034865886  0.7596545267964607  1.0000
