data_image0
_chemical_formula_structural       Ni2PBr6
_chemical_formula_sum              "Ni2 P1 Br6"
_cell_length_a       7.008143454524559
_cell_length_b       7.008142943911538
_cell_length_c       7.008143099674037
_cell_angle_alpha    59.99999899677389
_cell_angle_beta     59.99999786570497
_cell_angle_gamma    59.99999697844735

_space_group_name_H-M_alt    "P 1"
_space_group_IT_number       1

loop_
  _space_group_symop_operation_xyz
  'x, y, z'

loop_
  _atom_site_type_symbol
  _atom_site_label
  _atom_site_symmetry_multiplicity
  _atom_site_fract_x
  _atom_site_fract_y
  _atom_site_fract_z
  _atom_site_occupancy
  Ni  Ni1       1.0  0.2500000071350171  0.25000003660948916  0.24999998471666043  1.0000
  Ni  Ni2       1.0  0.750000148994245  0.7499998704069079  0.7500000799848247  1.0000
  P   P1        1.0  0.9999998981765581  9.78657470170142e-08  0.9999999263525405  1.0000
  Br  Br1       1.0  0.2495005849005196  0.24950083261391884  0.7504993035779852  1.0000
  Br  Br2       1.0  0.7504993640381532  0.7504991967346624  0.2495006637153809  1.0000
  Br  Br3       1.0  0.750499272902487  0.24950065655204096  0.2495006819257698  1.0000
  Br  Br4       1.0  0.24950065328600146  0.7504993273588723  0.7504992980578508  1.0000
  Br  Br5       1.0  0.24950077085947867  0.7504993041934439  0.2495007209917103  1.0000
  Br  Br6       1.0  0.7504993171818756  0.24950068845548248  0.7504993392182003  1.0000
