data_image0
_chemical_formula_structural       Ni2PF6
_chemical_formula_sum              "Ni2 P1 F6"
_cell_length_a       5.247466798494847
_cell_length_b       5.2474677113177535
_cell_length_c       5.24746747398987
_cell_angle_alpha    59.99998353326168
_cell_angle_beta     60.00000121178494
_cell_angle_gamma    59.99999712400524

_space_group_name_H-M_alt    "P 1"
_space_group_IT_number       1

loop_
  _space_group_symop_operation_xyz
  'x, y, z'

loop_
  _atom_site_type_symbol
  _atom_site_label
  _atom_site_symmetry_multiplicity
  _atom_site_fract_x
  _atom_site_fract_y
  _atom_site_fract_z
  _atom_site_occupancy
  Ni  Ni1       1.0  0.2500008290272632  0.24999949236487612  0.2499997686311571  1.0000
  Ni  Ni2       1.0  0.7500007471638956  0.7499995577242369  0.7500000052395444  1.0000
  P   P1        1.0  0.9999996270909796  2.077236492447433e-07  1.0176757202306063e-08  1.0000
  F   F1        1.0  0.22289247098820641  0.2228923800739697  0.7771075012110161  1.0000
  F   F2        1.0  0.7771071958281635  0.7771075592590682  0.2228924892500164  1.0000
  F   F3        1.0  0.7771073178045018  0.22289280197096947  0.2228925180271671  1.0000
  F   F4        1.0  0.222892375451867  0.7771077511969776  0.7771077106609143  1.0000
  F   F5        1.0  0.2228922765992382  0.7771075534198204  0.22289245041631695  1.0000
  F   F6        1.0  0.7771071209713561  0.22289285037393222  0.7771074748337516  1.0000
