data_image0
_chemical_formula_structural       Ni2PdF6
_chemical_formula_sum              "Ni2 Pd1 F6"
_cell_length_a       5.361120800301685
_cell_length_b       5.361120880804584
_cell_length_c       5.361120849514719
_cell_angle_alpha    59.999999297388726
_cell_angle_beta     59.99999954636359
_cell_angle_gamma    59.99999994518349

_space_group_name_H-M_alt    "P 1"
_space_group_IT_number       1

loop_
  _space_group_symop_operation_xyz
  'x, y, z'

loop_
  _atom_site_type_symbol
  _atom_site_label
  _atom_site_symmetry_multiplicity
  _atom_site_fract_x
  _atom_site_fract_y
  _atom_site_fract_z
  _atom_site_occupancy
  Ni  Ni1       1.0  0.25000010672217193  0.2500002784337726  0.24999991461062196  1.0000
  Ni  Ni2       1.0  0.7499999052481032  0.7500001545220911  0.7500000864997162  1.0000
  Pd  Pd1       1.0  2.639112584073933e-08  0.9999999337496722  4.9774106781084603e-08  1.0000
  F   F1        1.0  0.25852865761170185  0.2585284453020003  0.7414714055544402  1.0000
  F   F2        1.0  0.7414714282725574  0.7414714622202341  0.25852850981369946  1.0000
  F   F3        1.0  0.7414713749938429  0.25852858764850367  0.2585285615451038  1.0000
  F   F4        1.0  0.2585285516367845  0.7414713130202474  0.7414715208142649  1.0000
  F   F5        1.0  0.2585285613536509  0.7414712925207458  0.25852855724893936  1.0000
  F   F6        1.0  0.7414713929297935  0.25852855103565475  0.7414714596330884  1.0000
