data_image0
_chemical_formula_structural       Ni2PdCl6
_chemical_formula_sum              "Ni2 Pd1 Cl6"
_cell_length_a       6.5909349201124
_cell_length_b       6.590934979814854
_cell_length_c       6.5909348637703395
_cell_angle_alpha    60.000000690276124
_cell_angle_beta     60.00000016202114
_cell_angle_gamma    59.9999996805459

_space_group_name_H-M_alt    "P 1"
_space_group_IT_number       1

loop_
  _space_group_symop_operation_xyz
  'x, y, z'

loop_
  _atom_site_type_symbol
  _atom_site_label
  _atom_site_symmetry_multiplicity
  _atom_site_fract_x
  _atom_site_fract_y
  _atom_site_fract_z
  _atom_site_occupancy
  Ni  Ni1       1.0  0.24999990705515923  0.25000004555478383  0.24999993386772726  1.0000
  Ni  Ni2       1.0  0.7500000799453612  0.7500000641935235  0.7500000559643406  1.0000
  Pd  Pd1       1.0  0.9999999703048462  2.6015168292453698e-08  0.9999999836331674  1.0000
  Cl  Cl1       1.0  0.2512703303644154  0.2512703577463912  0.7487296690031573  1.0000
  Cl  Cl2       1.0  0.7487297331937788  0.7487295959109069  0.25127027714762845  1.0000
  Cl  Cl3       1.0  0.7487296539599073  0.2512703470090808  0.25127036998517516  1.0000
  Cl  Cl4       1.0  0.25127031232089875  0.7487295936406343  0.7487296965492206  1.0000
  Cl  Cl5       1.0  0.2512703438531185  0.74872970058255  0.2512703551802462  1.0000
  Cl  Cl6       1.0  0.748729669305312  0.25127026236588007  0.7487296555246834  1.0000
