data_image0
_chemical_formula_structural       Ni2SBr6
_chemical_formula_sum              "Ni2 S1 Br6"
_cell_length_a       7.005827784233631
_cell_length_b       7.005818078627161
_cell_length_c       7.005821372614859
_cell_angle_alpha    60.00002281721217
_cell_angle_beta     59.99999296520759
_cell_angle_gamma    59.999983938930214

_space_group_name_H-M_alt    "P 1"
_space_group_IT_number       1

loop_
  _space_group_symop_operation_xyz
  'x, y, z'

loop_
  _atom_site_type_symbol
  _atom_site_label
  _atom_site_symmetry_multiplicity
  _atom_site_fract_x
  _atom_site_fract_y
  _atom_site_fract_z
  _atom_site_occupancy
  Ni  Ni1       1.0  0.24999945449452685  0.2499989281649883  0.24999985342838696  1.0000
  Ni  Ni2       1.0  0.7499993754198739  0.7500019171607468  0.7500005788689609  1.0000
  S   S1        1.0  5.501878382549096e-07  0.999999699312544  0.9999997610588162  1.0000
  Br  Br1       1.0  0.2536588519121241  0.25365741000575764  0.7463421319143322  1.0000
  Br  Br2       1.0  0.7463411170721781  0.746342648637824  0.25365805567414207  1.0000
  Br  Br3       1.0  0.7463433584509188  0.2536570883923117  0.25365751350857374  1.0000
  Br  Br4       1.0  0.25365709783289997  0.7463421066492562  0.7463430363716557  1.0000
  Br  Br5       1.0  0.25365811466743654  0.7463431917090736  0.2536564520061372  1.0000
  Br  Br6       1.0  0.7463426680405435  0.2536562008763425  0.7463425369702665  1.0000
