data_image0
_chemical_formula_structural       Ni2SO6
_chemical_formula_sum              "Ni2 S1 O6"
_cell_length_a       4.850665443039624
_cell_length_b       4.850665585326722
_cell_length_c       4.850665659312734
_cell_angle_alpha    59.99999751806326
_cell_angle_beta     59.99999815917535
_cell_angle_gamma    59.99999988389321

_space_group_name_H-M_alt    "P 1"
_space_group_IT_number       1

loop_
  _space_group_symop_operation_xyz
  'x, y, z'

loop_
  _atom_site_type_symbol
  _atom_site_label
  _atom_site_symmetry_multiplicity
  _atom_site_fract_x
  _atom_site_fract_y
  _atom_site_fract_z
  _atom_site_occupancy
  Ni  Ni1       1.0  0.25000016776931916  0.24999950283493208  0.2500007685053012  1.0000
  Ni  Ni2       1.0  0.7500002231671509  0.7500005915479309  0.7499986230031089  1.0000
  S   S1        1.0  0.9999999691979109  0.999999992425297  4.392726887768362e-08  1.0000
  O   O1        1.0  0.23527431901407808  0.23527435458812757  0.7647255437259184  1.0000
  O   O2        1.0  0.7647256430488703  0.7647256766721994  0.23527475554536587  1.0000
  O   O3        1.0  0.7647254215380216  0.23527407547344753  0.2352746392145649  1.0000
  O   O4        1.0  0.23527434568711192  0.764725811867543  0.7647255655539896  1.0000
  O   O5        1.0  0.23527415644546648  0.7647257927048554  0.23527452214523825  1.0000
  O   O6        1.0  0.7647257710404284  0.23527422088117025  0.7647256135870336  1.0000
