data_image0
_chemical_formula_structural       Ni2ScF6
_chemical_formula_sum              "Ni2 Sc1 F6"
_cell_length_a       5.324963938336618
_cell_length_b       5.324964357971363
_cell_length_c       5.32496424661443
_cell_angle_alpha    59.99999607680268
_cell_angle_beta     59.99999899965465
_cell_angle_gamma    59.999997632064705

_space_group_name_H-M_alt    "P 1"
_space_group_IT_number       1

loop_
  _space_group_symop_operation_xyz
  'x, y, z'

loop_
  _atom_site_type_symbol
  _atom_site_label
  _atom_site_symmetry_multiplicity
  _atom_site_fract_x
  _atom_site_fract_y
  _atom_site_fract_z
  _atom_site_occupancy
  Ni  Ni1       1.0  0.24999954966047136  0.25000002860805065  0.25000035912312757  1.0000
  Ni  Ni2       1.0  0.7500003201023542  0.7500000881241539  0.749999786195778  1.0000
  Sc  Sc1       1.0  0.9999999867261241  1.3800031688388783e-08  6.546506235880853e-08  1.0000
  F   F1        1.0  0.25808733647425947  0.2580871799625389  0.7419125624290066  1.0000
  F   F2        1.0  0.74191273441108  0.7419127757692715  0.2580872210425138  1.0000
  F   F3        1.0  0.7419129174352828  0.2580872562916884  0.2580872922105589  1.0000
  F   F4        1.0  0.25808706235190515  0.7419127385402088  0.7419127726607677  1.0000
  F   F5        1.0  0.25808715241641567  0.7419126436242769  0.25808749839321116  1.0000
  F   F6        1.0  0.7419129504923367  0.2580873006074917  0.7419124889025686  1.0000
