data_image0
_chemical_formula_structural       Ni2SiBr6
_chemical_formula_sum              "Ni2 Si1 Br6"
_cell_length_a       6.923532281692393
_cell_length_b       6.923531798738208
_cell_length_c       6.923532324754604
_cell_angle_alpha    59.99999697023116
_cell_angle_beta     59.99999770616238
_cell_angle_gamma    59.99999720096366

_space_group_name_H-M_alt    "P 1"
_space_group_IT_number       1

loop_
  _space_group_symop_operation_xyz
  'x, y, z'

loop_
  _atom_site_type_symbol
  _atom_site_label
  _atom_site_symmetry_multiplicity
  _atom_site_fract_x
  _atom_site_fract_y
  _atom_site_fract_z
  _atom_site_occupancy
  Ni  Ni1       1.0  0.24999997858839268  0.25000009106925825  0.2499998775787835  1.0000
  Ni  Ni2       1.0  0.7500001308883234  0.749999777899041  0.7499999994815586  1.0000
  Si  Si1       1.0  0.9999999740899731  1.7689597685442697e-08  5.032939686833061e-08  1.0000
  Br  Br1       1.0  0.24282448440840085  0.24282457565511775  0.7571754515025026  1.0000
  Br  Br2       1.0  0.7571754426690867  0.7571755002814737  0.2428245273769151  1.0000
  Br  Br3       1.0  0.7571755381760656  0.2428245323765926  0.2428244969817067  1.0000
  Br  Br4       1.0  0.24282448609005522  0.7571754321155343  0.75717555402135  1.0000
  Br  Br5       1.0  0.24282452557912315  0.7571754912135364  0.24282450541674788  1.0000
  Br  Br6       1.0  0.7571754389817575  0.242824572340337  0.7571755475732975  1.0000
