data_image0
_chemical_formula_structural       Ni2SCl6
_chemical_formula_sum              "Ni2 S1 Cl6"
_cell_length_a       7.1568982910505055
_cell_length_b       6.010400407662991
_cell_length_c       7.930240816431369
_cell_angle_alpha    57.42683345070971
_cell_angle_beta     58.84124491771487
_cell_angle_gamma    72.73727904379355

_space_group_name_H-M_alt    "P 1"
_space_group_IT_number       1

loop_
  _space_group_symop_operation_xyz
  'x, y, z'

loop_
  _atom_site_type_symbol
  _atom_site_label
  _atom_site_symmetry_multiplicity
  _atom_site_fract_x
  _atom_site_fract_y
  _atom_site_fract_z
  _atom_site_occupancy
  Ni  Ni1       1.0  0.8594731287384425  0.2673871176178334  0.5494189625810131  1.0000
  Ni  Ni2       1.0  0.025574455929174844  0.9209181248322519  0.30843211299437556  1.0000
  S   S1        1.0  0.06981609916871584  0.9139943970527296  0.015299113899813793  1.0000
  Cl  Cl1       1.0  0.3018240171312247  0.16931684286720936  0.7451717074947724  1.0000
  Cl  Cl2       1.0  0.7253185170495104  0.6775299429093943  0.4702404938074399  1.0000
  Cl  Cl3       1.0  0.8636188236055673  0.3147564655274964  0.25139868389931486  1.0000
  Cl  Cl4       1.0  0.07134428374552929  0.9088393374077904  0.5654138968425498  1.0000
  Cl  Cl5       1.0  0.29183504868971166  0.649273327255074  0.21333861917553434  1.0000
  Cl  Cl6       1.0  0.7912514377462245  0.1781392600838474  0.8813156520748452  1.0000
