data_image0
_chemical_formula_structural       Ni2ScBr6
_chemical_formula_sum              "Ni2 Sc1 Br6"
_cell_length_a       7.078667238596169
_cell_length_b       7.078667266614134
_cell_length_c       7.078667357497485
_cell_angle_alpha    59.99999940931195
_cell_angle_beta     59.99999916334583
_cell_angle_gamma    59.99999808509849

_space_group_name_H-M_alt    "P 1"
_space_group_IT_number       1

loop_
  _space_group_symop_operation_xyz
  'x, y, z'

loop_
  _atom_site_type_symbol
  _atom_site_label
  _atom_site_symmetry_multiplicity
  _atom_site_fract_x
  _atom_site_fract_y
  _atom_site_fract_z
  _atom_site_occupancy
  Ni  Ni1       1.0  0.2500001512456406  0.24999993131356127  0.2500000074969753  1.0000
  Ni  Ni2       1.0  0.7500000655017887  0.7499997939406907  0.7500000767516568  1.0000
  Sc  Sc1       1.0  0.9999999669624157  5.017554965700909e-08  0.9999999504628541  1.0000
  Br  Br1       1.0  0.25732670130167645  0.2573268187849714  0.7426732337901507  1.0000
  Br  Br2       1.0  0.7426732555949741  0.7426732455867892  0.25732673877765716  1.0000
  Br  Br3       1.0  0.7426732093506965  0.257326787987596  0.25732672058576556  1.0000
  Br  Br4       1.0  0.25732666258856407  0.7426733404012457  0.7426732907061023  1.0000
  Br  Br5       1.0  0.2573267512924954  0.7426732594800772  0.2573267114651784  1.0000
  Br  Br6       1.0  0.7426732383448854  0.2573267702878557  0.7426732719230451  1.0000
