data_image0
_chemical_formula_structural       Ni2SCl6
_chemical_formula_sum              "Ni2 S1 Cl6"
_cell_length_a       6.697075818287421
_cell_length_b       6.697075913586346
_cell_length_c       6.6970758840912445
_cell_angle_alpha    59.999999433806096
_cell_angle_beta     59.99999913907467
_cell_angle_gamma    59.99999916318049

_space_group_name_H-M_alt    "P 1"
_space_group_IT_number       1

loop_
  _space_group_symop_operation_xyz
  'x, y, z'

loop_
  _atom_site_type_symbol
  _atom_site_label
  _atom_site_symmetry_multiplicity
  _atom_site_fract_x
  _atom_site_fract_y
  _atom_site_fract_z
  _atom_site_occupancy
  Ni  Ni1       1.0  0.250000078688388  0.2500000631382159  0.24999993538286763  1.0000
  Ni  Ni2       1.0  0.7499998623171785  0.750000198558529  0.7499998600364031  1.0000
  S   S1        1.0  3.3091250211839316e-08  0.9999999524518349  2.962629245420616e-08  1.0000
  Cl  Cl1       1.0  0.24865696807806326  0.24865679521264572  0.7513430915078735  1.0000
  Cl  Cl2       1.0  0.751343100418848  0.7513431098728625  0.24865692896733002  1.0000
  Cl  Cl3       1.0  0.7513431055084  0.24865677293652583  0.24865698470042888  1.0000
  Cl  Cl4       1.0  0.24865688701973  0.7513431376353091  0.7513431426890738  1.0000
  Cl  Cl5       1.0  0.24865688264333685  0.7513431278726588  0.24865689410527206  1.0000
  Cl  Cl6       1.0  0.7513430876436628  0.2486568339048925  0.751343144142488  1.0000
