data_image0
_chemical_formula_structural       Ni2ScI6
_chemical_formula_sum              "Ni2 Sc1 I6"
_cell_length_a       7.732412319966093
_cell_length_b       7.732412207122441
_cell_length_c       7.732412189488626
_cell_angle_alpha    60.00000046336857
_cell_angle_beta     60.000000055405906
_cell_angle_gamma    59.99999988816862

_space_group_name_H-M_alt    "P 1"
_space_group_IT_number       1

loop_
  _space_group_symop_operation_xyz
  'x, y, z'

loop_
  _atom_site_type_symbol
  _atom_site_label
  _atom_site_symmetry_multiplicity
  _atom_site_fract_x
  _atom_site_fract_y
  _atom_site_fract_z
  _atom_site_occupancy
  Ni  Ni1       1.0  0.24999994724388422  0.2500000967594925  0.24999992543744678  1.0000
  Ni  Ni2       1.0  0.7500000275433955  0.7499999434020853  0.7500001219624494  1.0000
  Sc  Sc1       1.0  0.9999999920209467  0.9999999746574323  0.9999999907956606  1.0000
  I   I1        1.0  0.2576938769935487  0.25769392918301104  0.7423061135665193  1.0000
  I   I2        1.0  0.7423061424278556  0.7423060935555512  0.2576938659110071  1.0000
  I   I3        1.0  0.7423061086088815  0.2576939048704689  0.257693838396534  1.0000
  I   I4        1.0  0.25769383780522215  0.7423061352911086  0.7423061404214709  1.0000
  I   I5        1.0  0.2576939126416414  0.7423060704667197  0.2576938633105174  1.0000
  I   I6        1.0  0.7423061605110497  0.2576938493176617  0.7423061368986832  1.0000
