data_image0
_chemical_formula_structural       Ni2SiSe6
_chemical_formula_sum              "Ni2 Si1 Se6"
_cell_length_a       6.209909538126625
_cell_length_b       6.209909493268467
_cell_length_c       6.209909524239134
_cell_angle_alpha    59.99999834655815
_cell_angle_beta     59.99999913929465
_cell_angle_gamma    59.9999979618753

_space_group_name_H-M_alt    "P 1"
_space_group_IT_number       1

loop_
  _space_group_symop_operation_xyz
  'x, y, z'

loop_
  _atom_site_type_symbol
  _atom_site_label
  _atom_site_symmetry_multiplicity
  _atom_site_fract_x
  _atom_site_fract_y
  _atom_site_fract_z
  _atom_site_occupancy
  Ni  Ni1       1.0  0.25000006157071963  0.2499999355745231  0.24999991599135743  1.0000
  Ni  Ni2       1.0  0.7500000520692975  0.7499999368915854  0.7500002725685558  1.0000
  Si  Si1       1.0  1.4762791694848697e-08  5.916728396351065e-09  0.9999999671156279  1.0000
  Se  Se1       1.0  0.28080067941908265  0.28080073156909946  0.7191993418218581  1.0000
  Se  Se2       1.0  0.7191992743985028  0.7191993637604449  0.28080058494044463  1.0000
  Se  Se3       1.0  0.7191992992339739  0.28080073964107055  0.28080063794890064  1.0000
  Se  Se4       1.0  0.280800607159666  0.7191992748265218  0.7191993320220699  1.0000
  Se  Se5       1.0  0.28080070884691355  0.7191993280093094  0.2808006290718808  1.0000
  Se  Se6       1.0  0.7191992979569327  0.2808006864582814  0.7191993212902456  1.0000
