data_image0
_chemical_formula_structural       Ni2SiI6
_chemical_formula_sum              "Ni2 Si1 I6"
_cell_length_a       7.477915327486117
_cell_length_b       7.47791467493479
_cell_length_c       7.477915016569369
_cell_angle_alpha    59.99999894211569
_cell_angle_beta     60.000001049706995
_cell_angle_gamma    59.99999836036189

_space_group_name_H-M_alt    "P 1"
_space_group_IT_number       1

loop_
  _space_group_symop_operation_xyz
  'x, y, z'

loop_
  _atom_site_type_symbol
  _atom_site_label
  _atom_site_symmetry_multiplicity
  _atom_site_fract_x
  _atom_site_fract_y
  _atom_site_fract_z
  _atom_site_occupancy
  Ni  Ni1       1.0  0.25000001221463863  0.2500000863296951  0.2500000488192994  1.0000
  Ni  Ni2       1.0  0.7500000666117846  0.7499999559931064  0.7500000061568243  1.0000
  Si  Si1       1.0  0.9999999891133703  0.9999999770705744  0.9999999821389777  1.0000
  I   I1        1.0  0.25066088856920804  0.2506609188292739  0.7493390635696745  1.0000
  I   I2        1.0  0.7493390763649652  0.749339103839733  0.25066089636966277  1.0000
  I   I3        1.0  0.749339094444678  0.25066088865160474  0.2506608985786651  1.0000
  I   I4        1.0  0.2506608778837754  0.749339070142575  0.749339120358182  1.0000
  I   I5        1.0  0.25066089984230766  0.7493390555010758  0.2506608993439964  1.0000
  I   I6        1.0  0.7493390970827675  0.25066093604942563  0.7493390962654636  1.0000
