data_image0
_chemical_formula_structural       Ni2SeO6
_chemical_formula_sum              "Ni2 Se1 O6"
_cell_length_a       4.990966134189407
_cell_length_b       4.9909665294861485
_cell_length_c       4.990966776536231
_cell_angle_alpha    59.99999765524464
_cell_angle_beta     59.99999962810655
_cell_angle_gamma    59.99999880331832

_space_group_name_H-M_alt    "P 1"
_space_group_IT_number       1

loop_
  _space_group_symop_operation_xyz
  'x, y, z'

loop_
  _atom_site_type_symbol
  _atom_site_label
  _atom_site_symmetry_multiplicity
  _atom_site_fract_x
  _atom_site_fract_y
  _atom_site_fract_z
  _atom_site_occupancy
  Ni  Ni1       1.0  0.24999942140621872  0.2499999420269017  0.2500015388288619  1.0000
  Ni  Ni2       1.0  0.7500036839575388  0.7499984616993798  0.7499982649963823  1.0000
  Se  Se1       1.0  9.917923117640202e-08  5.644023312322602e-08  0.9999999642662869  1.0000
  O   O1        1.0  0.2523586560873832  0.2523605557622483  0.7476398538424404  1.0000
  O   O2        1.0  0.7476402490786589  0.7476403705972511  0.2523598029839598  1.0000
  O   O3        1.0  0.7476402775796711  0.2523596389268959  0.2523597830485115  1.0000
  O   O4        1.0  0.252358741429293  0.7476406960370907  0.7476401145578105  1.0000
  O   O5        1.0  0.2523583781534058  0.747640304836967  0.2523606250531287  1.0000
  O   O6        1.0  0.7476404441090045  0.2523599540553838  0.7476401402835204  1.0000
