data_image0
_chemical_formula_structural       Ni2ScCl6
_chemical_formula_sum              "Ni2 Sc1 Cl6"
_cell_length_a       6.619457081393659
_cell_length_b       6.619457135671761
_cell_length_c       6.619457278504181
_cell_angle_alpha    59.999997327831025
_cell_angle_beta     59.99999829268109
_cell_angle_gamma    59.99999730983592

_space_group_name_H-M_alt    "P 1"
_space_group_IT_number       1

loop_
  _space_group_symop_operation_xyz
  'x, y, z'

loop_
  _atom_site_type_symbol
  _atom_site_label
  _atom_site_symmetry_multiplicity
  _atom_site_fract_x
  _atom_site_fract_y
  _atom_site_fract_z
  _atom_site_occupancy
  Ni  Ni1       1.0  0.2500000105518824  0.25000002627237694  0.24999996908257088  1.0000
  Ni  Ni2       1.0  0.7500000394102847  0.7499999770550527  0.7500000479147022  1.0000
  Sc  Sc1       1.0  2.301285188290889e-08  0.9999999518942927  0.9999999249259519  1.0000
  Cl  Cl1       1.0  0.2578434745166712  0.25784349866301376  0.7421564842412658  1.0000
  Cl  Cl2       1.0  0.7421565104974497  0.7421564954133213  0.2578434535318422  1.0000
  Cl  Cl3       1.0  0.7421564925971718  0.25784362257644433  0.2578434810689113  1.0000
  Cl  Cl4       1.0  0.25784348770969967  0.7421565269183313  0.7421565354397814  1.0000
  Cl  Cl5       1.0  0.2578434650088846  0.742156527097485  0.25784351390701665  1.0000
  Cl  Cl6       1.0  0.7421565066153969  0.2578433763180897  0.7421565801295456  1.0000
