data_image0
_chemical_formula_structural       Ni2SiTe6
_chemical_formula_sum              "Ni2 Si1 Te6"
_cell_length_a       7.116748467716247
_cell_length_b       7.116748870258882
_cell_length_c       7.116748546563077
_cell_angle_alpha    60.00000216682961
_cell_angle_beta     59.9999996194065
_cell_angle_gamma    60.00000021635536

_space_group_name_H-M_alt    "P 1"
_space_group_IT_number       1

loop_
  _space_group_symop_operation_xyz
  'x, y, z'

loop_
  _atom_site_type_symbol
  _atom_site_label
  _atom_site_symmetry_multiplicity
  _atom_site_fract_x
  _atom_site_fract_y
  _atom_site_fract_z
  _atom_site_occupancy
  Ni  Ni1       1.0  0.24999992608212826  0.24999990470326547  0.250000086775918  1.0000
  Ni  Ni2       1.0  0.7500000988484621  0.7499996917376593  0.7499999847505388  1.0000
  Si  Si1       1.0  0.9999999956076884  3.4418662358127795e-09  4.690630864627974e-09  1.0000
  Te  Te1       1.0  0.2593779908792375  0.25937812095538687  0.7406219275693708  1.0000
  Te  Te2       1.0  0.7406219765320423  0.7406220812539771  0.2593780679567089  1.0000
  Te  Te3       1.0  0.7406219848297424  0.2593780717875816  0.2593780097543624  1.0000
  Te  Te4       1.0  0.25937804464754416  0.7406220805147219  0.7406219038148968  1.0000
  Te  Te5       1.0  0.2593780377684407  0.74062199427143  0.25937803574403934  1.0000
  Te  Te6       1.0  0.7406219532129178  0.2593780496120918  0.7406219821955675  1.0000
