data_image0
_chemical_formula_structural       Ni2SiS6
_chemical_formula_sum              "Ni2 Si1 S6"
_cell_length_a       5.730419242338849
_cell_length_b       5.730419542816846
_cell_length_c       5.730419395837301
_cell_angle_alpha    60.00000568353937
_cell_angle_beta     60.00000435408008
_cell_angle_gamma    60.00000264265534

_space_group_name_H-M_alt    "P 1"
_space_group_IT_number       1

loop_
  _space_group_symop_operation_xyz
  'x, y, z'

loop_
  _atom_site_type_symbol
  _atom_site_label
  _atom_site_symmetry_multiplicity
  _atom_site_fract_x
  _atom_site_fract_y
  _atom_site_fract_z
  _atom_site_occupancy
  Ni  Ni1       1.0  0.2499998090645018  0.24999994409924609  0.250000111405937  1.0000
  Ni  Ni2       1.0  0.7499998824066813  0.7499999477102836  0.750000874324488  1.0000
  Si  Si1       1.0  3.1463574873384886e-07  0.9999997029196221  5.147442074394528e-07  1.0000
  S   S1        1.0  0.26600116656278106  0.26600097609303763  0.7339988693794602  1.0000
  S   S2        1.0  0.7339986778659777  0.7339990311289595  0.26600041334535235  1.0000
  S   S3        1.0  0.7339991269062333  0.26600105243294236  0.26600088670947775  1.0000
  S   S4        1.0  0.2660013268078083  0.7339982815493268  0.7339989009073322  1.0000
  S   S5        1.0  0.2660014830921631  0.7339993102891109  0.26600058523596193  1.0000
  S   S6        1.0  0.7339982257000139  0.26600178694009535  0.7339988153734546  1.0000
