data_image0
_chemical_formula_structural       Ni2SeS6
_chemical_formula_sum              "Ni2 Se1 S6"
_cell_length_a       6.115087313051578
_cell_length_b       6.115087273291769
_cell_length_c       6.115087477936963
_cell_angle_alpha    59.9999976165708
_cell_angle_beta     59.999999329363376
_cell_angle_gamma    59.9999993498199

_space_group_name_H-M_alt    "P 1"
_space_group_IT_number       1

loop_
  _space_group_symop_operation_xyz
  'x, y, z'

loop_
  _atom_site_type_symbol
  _atom_site_label
  _atom_site_symmetry_multiplicity
  _atom_site_fract_x
  _atom_site_fract_y
  _atom_site_fract_z
  _atom_site_occupancy
  Ni  Ni1       1.0  0.25000008003196655  0.2499999439156835  0.2499999567660265  1.0000
  Ni  Ni2       1.0  0.7499999486851755  0.7500001281651302  0.7499999953477656  1.0000
  Se  Se1       1.0  4.997235825780253e-08  2.0028249228368254e-08  0.999999973176194  1.0000
  S   S1        1.0  0.25117887597389377  0.2511788510779632  0.7488210661260167  1.0000
  S   S2        1.0  0.748821064756522  0.7488212470395764  0.25117871582092666  1.0000
  S   S3        1.0  0.7488211338483869  0.25117880309952617  0.25117892461884866  1.0000
  S   S4        1.0  0.25117891001768405  0.7488210026055748  0.7488212921088025  1.0000
  S   S5        1.0  0.2511788771446512  0.7488212225218418  0.2511787820265858  1.0000
  S   S6        1.0  0.7488210627480287  0.2511787874713984  0.7488213109552079  1.0000
