data_image0
_chemical_formula_structural       Ni2SF6
_chemical_formula_sum              "Ni2 S1 F6"
_cell_length_a       5.105047108384553
_cell_length_b       5.105046929505516
_cell_length_c       5.105047411887685
_cell_angle_alpha    59.99999873329566
_cell_angle_beta     59.999999483578385
_cell_angle_gamma    59.999998218964805

_space_group_name_H-M_alt    "P 1"
_space_group_IT_number       1

loop_
  _space_group_symop_operation_xyz
  'x, y, z'

loop_
  _atom_site_type_symbol
  _atom_site_label
  _atom_site_symmetry_multiplicity
  _atom_site_fract_x
  _atom_site_fract_y
  _atom_site_fract_z
  _atom_site_occupancy
  Ni  Ni1       1.0  0.2500000152802243  0.25000024151612316  0.2500000059737702  1.0000
  Ni  Ni2       1.0  0.7499993317140358  0.7500000983868046  0.7500004980573656  1.0000
  S   S1        1.0  8.254888148355595e-08  0.9999999016374539  0.9999999550179988  1.0000
  F   F1        1.0  0.25333241206268176  0.25333190384342535  0.7466678969840889  1.0000
  F   F2        1.0  0.7466679019503217  0.7466679778339776  0.2533319706755367  1.0000
  F   F3        1.0  0.7466680094486681  0.25333209882405316  0.25333195429747324  1.0000
  F   F4        1.0  0.25333224312903235  0.746667722876189  0.7466679916979936  1.0000
  F   F5        1.0  0.2533320166786486  0.7466679598896708  0.25333197270276736  1.0000
  F   F6        1.0  0.7466679743165867  0.25333209692104225  0.7466677593025999  1.0000
