data_image0
_chemical_formula_structural       Ni2SiF6
_chemical_formula_sum              "Ni2 Si1 F6"
_cell_length_a       5.076901463099036
_cell_length_b       5.076899841875291
_cell_length_c       5.076900690655622
_cell_angle_alpha    60.00000292310512
_cell_angle_beta     59.99999871556048
_cell_angle_gamma    59.99999987157383

_space_group_name_H-M_alt    "P 1"
_space_group_IT_number       1

loop_
  _space_group_symop_operation_xyz
  'x, y, z'

loop_
  _atom_site_type_symbol
  _atom_site_label
  _atom_site_symmetry_multiplicity
  _atom_site_fract_x
  _atom_site_fract_y
  _atom_site_fract_z
  _atom_site_occupancy
  Ni  Ni1       1.0  0.25000002653968806  0.2500000152922015  0.24999988358516576  1.0000
  Ni  Ni2       1.0  0.7499999006533746  0.7499999686802413  0.7500000920197262  1.0000
  Si  Si1       1.0  1.3898778431641493e-08  2.6536261865635797e-08  0.9999999896310091  1.0000
  F   F1        1.0  0.2344069004501093  0.23440697964127227  0.7655930793669166  1.0000
  F   F2        1.0  0.7655930712892424  0.7655930139807348  0.23440697944356398  1.0000
  F   F3        1.0  0.7655930663466483  0.23440695206931306  0.23440696418785964  1.0000
  F   F4        1.0  0.23440696613588005  0.7655930367279186  0.7655930371178321  1.0000
  F   F5        1.0  0.23440691284455267  0.765593086525284  0.2344069128561655  1.0000
  F   F6        1.0  0.7655930785367752  0.23440695051969443  0.7655931104824316  1.0000
