data_image0
_chemical_formula_structural       Ni2SBr6
_chemical_formula_sum              "Ni2 S1 Br6"
_cell_length_a       7.005612888623819
_cell_length_b       7.005612879556445
_cell_length_c       7.005613011304056
_cell_angle_alpha    59.999999669768094
_cell_angle_beta     60.00000061758656
_cell_angle_gamma    60.00000019990696

_space_group_name_H-M_alt    "P 1"
_space_group_IT_number       1

loop_
  _space_group_symop_operation_xyz
  'x, y, z'

loop_
  _atom_site_type_symbol
  _atom_site_label
  _atom_site_symmetry_multiplicity
  _atom_site_fract_x
  _atom_site_fract_y
  _atom_site_fract_z
  _atom_site_occupancy
  Ni  Ni1       1.0  0.2500000625757633  0.24999991353649714  0.2500000082401552  1.0000
  Ni  Ni2       1.0  0.7500000911088293  0.7499999958516161  0.7499999896588654  1.0000
  S   S1        1.0  0.9999999795382657  6.992934863786716e-09  9.589253219847334e-09  1.0000
  Br  Br1       1.0  0.25363291576207936  0.25363294893044946  0.7463670831680853  1.0000
  Br  Br2       1.0  0.7463670582945684  0.746367074092856  0.25363292917076136  1.0000
  Br  Br3       1.0  0.7463670261927035  0.2536329595542682  0.25363294298753164  1.0000
  Br  Br4       1.0  0.2536328961854319  0.7463670652172708  0.7463670357919537  1.0000
  Br  Br5       1.0  0.25363289670212075  0.7463671200106994  0.25363291842481617  1.0000
  Br  Br6       1.0  0.7463670657167898  0.2536329082573071  0.7463670814088532  1.0000
