data_image0
_chemical_formula_structural       Ni2TiI6
_chemical_formula_sum              "Ni2 Ti1 I6"
_cell_length_a       7.645241681290717
_cell_length_b       7.645241697778969
_cell_length_c       7.6452415499271495
_cell_angle_alpha    60.00000075396504
_cell_angle_beta     60.00000102045869
_cell_angle_gamma    60.000000220968026

_space_group_name_H-M_alt    "P 1"
_space_group_IT_number       1

loop_
  _space_group_symop_operation_xyz
  'x, y, z'

loop_
  _atom_site_type_symbol
  _atom_site_label
  _atom_site_symmetry_multiplicity
  _atom_site_fract_x
  _atom_site_fract_y
  _atom_site_fract_z
  _atom_site_occupancy
  Ni  Ni1       1.0  0.25000000725087174  0.25000003941479687  0.24999996662386198  1.0000
  Ni  Ni2       1.0  0.7500000262104697  0.7499999372217687  0.750000001234001  1.0000
  Ti  Ti1       1.0  0.9999999835850849  0.9999999631546876  3.317012934452886e-08  1.0000
  I   I1        1.0  0.2500765169707521  0.2500765989610916  0.749923443113893  1.0000
  I   I2        1.0  0.7499234953744036  0.7499234818035309  0.25007652509413486  1.0000
  I   I3        1.0  0.7499234768476599  0.2500765201199292  0.25007651823440813  1.0000
  I   I4        1.0  0.2500765124470035  0.7499234757402778  0.7499234961030546  1.0000
  I   I5        1.0  0.2500765099336476  0.7499234583251797  0.2500765365445968  1.0000
  I   I6        1.0  0.7499234746624429  0.2500765199133562  0.7499234837209755  1.0000
