data_image0
_chemical_formula_structural       Ni2VBr6
_chemical_formula_sum              "Ni2 V1 Br6"
_cell_length_a       7.0036552261945495
_cell_length_b       7.0036554405563445
_cell_length_c       7.003655164173816
_cell_angle_alpha    60.00000093541904
_cell_angle_beta     60.000000826935995
_cell_angle_gamma    59.99999982881703

_space_group_name_H-M_alt    "P 1"
_space_group_IT_number       1

loop_
  _space_group_symop_operation_xyz
  'x, y, z'

loop_
  _atom_site_type_symbol
  _atom_site_label
  _atom_site_symmetry_multiplicity
  _atom_site_fract_x
  _atom_site_fract_y
  _atom_site_fract_z
  _atom_site_occupancy
  Ni  Ni1       1.0  0.2500000077984445  0.24999989489018573  0.2500000715127925  1.0000
  Ni  Ni2       1.0  0.7500000291699846  0.7499999294916833  0.749999910762255  1.0000
  V   V1        1.0  0.9999999947709918  0.9999999860102217  0.9999999753415725  1.0000
  Br  Br1       1.0  0.24699380064651388  0.2469938154217221  0.7530061659752096  1.0000
  Br  Br2       1.0  0.7530062053420238  0.7530062502838271  0.24699383534879324  1.0000
  Br  Br3       1.0  0.7530062070874978  0.24699380263917645  0.24699382675879836  1.0000
  Br  Br4       1.0  0.24699376689260732  0.7530062700612623  0.7530062170563189  1.0000
  Br  Br5       1.0  0.24699373314513806  0.753006288943209  0.24699378570875657  1.0000
  Br  Br6       1.0  0.7530062599537427  0.24699376102383977  0.7530062127954146  1.0000
