data_image0
_chemical_formula_structural       Ni2VCl6
_chemical_formula_sum              "Ni2 V1 Cl6"
_cell_length_a       6.580212457076255
_cell_length_b       6.580212497413316
_cell_length_c       6.580212480827508
_cell_angle_alpha    60.00000186510589
_cell_angle_beta     60.00000112130574
_cell_angle_gamma    60.00000039733793

_space_group_name_H-M_alt    "P 1"
_space_group_IT_number       1

loop_
  _space_group_symop_operation_xyz
  'x, y, z'

loop_
  _atom_site_type_symbol
  _atom_site_label
  _atom_site_symmetry_multiplicity
  _atom_site_fract_x
  _atom_site_fract_y
  _atom_site_fract_z
  _atom_site_occupancy
  Ni  Ni1       1.0  0.2499999180507067  0.24999998032564033  0.24999996071786487  1.0000
  Ni  Ni2       1.0  0.7499999570710958  0.7499999744795021  0.7500001773033306  1.0000
  V   V1        1.0  0.9999999931754002  2.0473795534351965e-08  0.9999999080717675  1.0000
  Cl  Cl1       1.0  0.24686994002020307  0.24686990566379222  0.7531300659544696  1.0000
  Cl  Cl2       1.0  0.7531301485494158  0.7531300826439229  0.24686983765286682  1.0000
  Cl  Cl3       1.0  0.7531300818645308  0.24686997146189146  0.24686987497927082  1.0000
  Cl  Cl4       1.0  0.24686985770456596  0.7531301006022683  0.7531301691493555  1.0000
  Cl  Cl5       1.0  0.24686999097395357  0.7531300871665232  0.2468698616028014  1.0000
  Cl  Cl6       1.0  0.7531301184587239  0.24686988066739649  0.7531301375514925  1.0000
