data_image0
_chemical_formula_structural       Ni2VF6
_chemical_formula_sum              "Ni2 V1 F6"
_cell_length_a       5.255922631671228
_cell_length_b       5.255922857314052
_cell_length_c       5.255922957802636
_cell_angle_alpha    60.00000109705423
_cell_angle_beta     59.99999875945091
_cell_angle_gamma    60.00000214565471

_space_group_name_H-M_alt    "P 1"
_space_group_IT_number       1

loop_
  _space_group_symop_operation_xyz
  'x, y, z'

loop_
  _atom_site_type_symbol
  _atom_site_label
  _atom_site_symmetry_multiplicity
  _atom_site_fract_x
  _atom_site_fract_y
  _atom_site_fract_z
  _atom_site_occupancy
  Ni  Ni1       1.0  0.250000018466926  0.2500000612668498  0.25000000890427526  1.0000
  Ni  Ni2       1.0  0.7500001007867909  0.7499999158254235  0.7499998754464526  1.0000
  V   V1        1.0  0.9999999857521553  5.592524208133477e-08  0.9999999430116092  1.0000
  F   F1        1.0  0.2522174647170464  0.25221758700001734  0.7477824832093383  1.0000
  F   F2        1.0  0.7477825384523322  0.7477824483477183  0.2522175784598296  1.0000
  F   F3        1.0  0.7477824292641799  0.25221744690382464  0.25221752080748244  1.0000
  F   F4        1.0  0.2522175060662458  0.7477825744625979  0.7477824885436628  1.0000
  F   F5        1.0  0.25221744298463555  0.7477825406347448  0.2522174933492499  1.0000
  F   F6        1.0  0.7477825310266323  0.2522174108251251  0.7477825582513657  1.0000
