data_image0
_chemical_formula_structural       Ni2ZnBr6
_chemical_formula_sum              "Ni2 Zn1 Br6"
_cell_length_a       6.9054355749377665
_cell_length_b       6.905435494157235
_cell_length_c       6.905435487020079
_cell_angle_alpha    59.99999928176141
_cell_angle_beta     59.99999940511594
_cell_angle_gamma    59.999999456884396

_space_group_name_H-M_alt    "P 1"
_space_group_IT_number       1

loop_
  _space_group_symop_operation_xyz
  'x, y, z'

loop_
  _atom_site_type_symbol
  _atom_site_label
  _atom_site_symmetry_multiplicity
  _atom_site_fract_x
  _atom_site_fract_y
  _atom_site_fract_z
  _atom_site_occupancy
  Ni  Ni1       1.0  0.2500000564491599  0.24999994550048638  0.24999997055728201  1.0000
  Ni  Ni2       1.0  0.7499999759127141  0.7500001007671773  0.7499999776257913  1.0000
  Zn  Zn1       1.0  0.9999999712689486  1.596235869665777e-08  3.100263454552178e-08  1.0000
  Br  Br1       1.0  0.2547753932478902  0.25477536658569666  0.7452246417278976  1.0000
  Br  Br2       1.0  0.7452246402471568  0.7452245910021956  0.25477536470982126  1.0000
  Br  Br3       1.0  0.7452245654042002  0.2547753647926953  0.2547754129753748  1.0000
  Br  Br4       1.0  0.2547754116082745  0.7452246318142964  0.7452245804720619  1.0000
  Br  Br5       1.0  0.2547754054241606  0.7452246553978161  0.2547753761545022  1.0000
  Br  Br6       1.0  0.7452245830065488  0.25477532702041195  0.7452246447446215  1.0000
