data_image0
_chemical_formula_structural       Ni2ZnI6
_chemical_formula_sum              "Ni2 Zn1 I6"
_cell_length_a       7.41249708857403
_cell_length_b       7.412497018314572
_cell_length_c       7.412497130324486
_cell_angle_alpha    59.999999824504606
_cell_angle_beta     59.99999968357277
_cell_angle_gamma    59.99999972112026

_space_group_name_H-M_alt    "P 1"
_space_group_IT_number       1

loop_
  _space_group_symop_operation_xyz
  'x, y, z'

loop_
  _atom_site_type_symbol
  _atom_site_label
  _atom_site_symmetry_multiplicity
  _atom_site_fract_x
  _atom_site_fract_y
  _atom_site_fract_z
  _atom_site_occupancy
  Ni  Ni1       1.0  0.24999993334781195  0.24999997011499864  0.2500000641280834  1.0000
  Ni  Ni2       1.0  0.7500000257156626  0.7499999483472128  0.7499999674609888  1.0000
  Zn  Zn1       1.0  0.9999999748083221  0.9999999867818373  0.9999999760345831  1.0000
  I   I1        1.0  0.2577286308835913  0.257728661544391  0.7422713527715438  1.0000
  I   I2        1.0  0.7422714199292839  0.7422713742290127  0.2577286080140584  1.0000
  I   I3        1.0  0.7422713672043237  0.25772863585131306  0.25772863978192184  1.0000
  I   I4        1.0  0.2577285909438448  0.742271439576578  0.7422713690939585  1.0000
  I   I5        1.0  0.25772862655590834  0.7422713813794293  0.25772862551561015  1.0000
  I   I6        1.0  0.7422714325345313  0.2577286015213244  0.7422713966906528  1.0000
