data_image0
_chemical_formula_structural       Ni2ZnCl6
_chemical_formula_sum              "Ni2 Zn1 Cl6"
_cell_length_a       6.425723175722983
_cell_length_b       6.425723221891446
_cell_length_c       6.425723112875618
_cell_angle_alpha    59.99999938429008
_cell_angle_beta     59.999998819248155
_cell_angle_gamma    59.99999971165731

_space_group_name_H-M_alt    "P 1"
_space_group_IT_number       1

loop_
  _space_group_symop_operation_xyz
  'x, y, z'

loop_
  _atom_site_type_symbol
  _atom_site_label
  _atom_site_symmetry_multiplicity
  _atom_site_fract_x
  _atom_site_fract_y
  _atom_site_fract_z
  _atom_site_occupancy
  Ni  Ni1       1.0  0.24999991751879883  0.2499999879424049  0.25000009255778455  1.0000
  Ni  Ni2       1.0  0.7500000072939544  0.7499999866992546  0.7499999038755438  1.0000
  Zn  Zn1       1.0  9.8196293637512e-09  1.9060031526597915e-08  0.9999999964538848  1.0000
  Cl  Cl1       1.0  0.2561447635020755  0.2561448048877561  0.7438551930485366  1.0000
  Cl  Cl2       1.0  0.743855267442508  0.7438551640358932  0.256144855890056  1.0000
  Cl  Cl3       1.0  0.743855235858394  0.2561447767979177  0.2561448096979658  1.0000
  Cl  Cl4       1.0  0.2561448120751055  0.7438552435878174  0.7438551458778121  1.0000
  Cl  Cl5       1.0  0.25614480186945904  0.7438551939544094  0.2561447990896308  1.0000
  Cl  Cl6       1.0  0.7438551869811502  0.2561448149953066  0.7438552026393181  1.0000
