data_image0
_chemical_formula_structural       Os2CrSe6
_chemical_formula_sum              "Os2 Cr1 Se6"
_cell_length_a       6.033264229339135
_cell_length_b       6.033265000159971
_cell_length_c       6.033264848308827
_cell_angle_alpha    59.99999745680696
_cell_angle_beta     59.999993573480424
_cell_angle_gamma    59.999998767195116

_space_group_name_H-M_alt    "P 1"
_space_group_IT_number       1

loop_
  _space_group_symop_operation_xyz
  'x, y, z'

loop_
  _atom_site_type_symbol
  _atom_site_label
  _atom_site_symmetry_multiplicity
  _atom_site_fract_x
  _atom_site_fract_y
  _atom_site_fract_z
  _atom_site_occupancy
  Os  Os1       1.0  0.2499905699513342  0.2500097194522846  0.24999948117135193  1.0000
  Os  Os2       1.0  0.7500003475818058  0.7499976245401125  0.7500057706309319  1.0000
  Cr  Cr1       1.0  3.7820077274801075e-07  0.9999997381316887  0.9999999020543102  1.0000
  Se  Se1       1.0  0.26902831934235183  0.2690297653815567  0.7309711984826108  1.0000
  Se  Se2       1.0  0.730975544416943  0.7309664664626592  0.26902680637456705  1.0000
  Se  Se3       1.0  0.7309734947222102  0.26903086657251923  0.26902687810659115  1.0000
  Se  Se4       1.0  0.26902788315422177  0.7309682295831513  0.7309734419845927  1.0000
  Se  Se5       1.0  0.2690302375725364  0.7309687819436823  0.2690277411481777  1.0000
  Se  Se6       1.0  0.7309732264119563  0.2690288099917766  0.7309688106115337  1.0000
