data_image0
_chemical_formula_structural       Os2CoSe6
_chemical_formula_sum              "Os2 Co1 Se6"
_cell_length_a       5.9884397835592145
_cell_length_b       5.988440472333668
_cell_length_c       5.988440092332933
_cell_angle_alpha    60.00001142511501
_cell_angle_beta     60.000009133583546
_cell_angle_gamma    60.000008541120884

_space_group_name_H-M_alt    "P 1"
_space_group_IT_number       1

loop_
  _space_group_symop_operation_xyz
  'x, y, z'

loop_
  _atom_site_type_symbol
  _atom_site_label
  _atom_site_symmetry_multiplicity
  _atom_site_fract_x
  _atom_site_fract_y
  _atom_site_fract_z
  _atom_site_occupancy
  Os  Os1       1.0  0.2499972839659122  0.25000936044870536  0.24999688185149527  1.0000
  Os  Os2       1.0  0.750002385335222  0.7500002873303374  0.7499936316347828  1.0000
  Co  Co1       1.0  9.326304549473501e-08  0.999999558240833  4.4977888913785576e-07  1.0000
  Se  Se1       1.0  0.2670496939487562  0.2670510835908381  0.7329494094056108  1.0000
  Se  Se2       1.0  0.732952269427205  0.7329468575702629  0.2670528505823238  1.0000
  Se  Se3       1.0  0.7329493873030952  0.26704911834342493  0.26705181413978957  1.0000
  Se  Se4       1.0  0.2670508917691221  0.7329463788259181  0.7329527237407315  1.0000
  Se  Se5       1.0  0.26704801656613386  0.732945972339246  0.2670529533693595  1.0000
  Se  Se6       1.0  0.7329499777330057  0.2670514043516653  0.7329492906603554  1.0000
