data_image0
_chemical_formula_structural       Os2CrS6
_chemical_formula_sum              "Os2 Cr1 S6"
_cell_length_a       5.539706481104984
_cell_length_b       5.539706819270512
_cell_length_c       5.53970639002417
_cell_angle_alpha    59.999996143530865
_cell_angle_beta     59.99999409208737
_cell_angle_gamma    59.999997440739875

_space_group_name_H-M_alt    "P 1"
_space_group_IT_number       1

loop_
  _space_group_symop_operation_xyz
  'x, y, z'

loop_
  _atom_site_type_symbol
  _atom_site_label
  _atom_site_symmetry_multiplicity
  _atom_site_fract_x
  _atom_site_fract_y
  _atom_site_fract_z
  _atom_site_occupancy
  Os  Os1       1.0  0.24999853522205465  0.25000042183370513  0.24999949258511464  1.0000
  Os  Os2       1.0  0.7500005617926753  0.7499978342649102  0.7500029556600467  1.0000
  Cr  Cr1       1.0  2.651538314612293e-09  7.95905312896831e-08  0.9999998036360765  1.0000
  S   S1        1.0  0.2687915620582176  0.2687926465098612  0.731208300995386  1.0000
  S   S2        1.0  0.731208470547554  0.7312076303037827  0.26879121775614034  1.0000
  S   S3        1.0  0.7312087546009369  0.2687932777193839  0.2687907609487457  1.0000
  S   S4        1.0  0.26879167108332663  0.7312076645594727  0.7312081689609328  1.0000
  S   S5        1.0  0.2687924367360544  0.731208290499656  0.26879148761452737  1.0000
  S   S6        1.0  0.7312080050420807  0.26879217202520306  0.7312078167320725  1.0000
