data_image0
_chemical_formula_structural       Os2CrO6
_chemical_formula_sum              "Os2 Cr1 O6"
_cell_length_a       4.721447638414663
_cell_length_b       4.721447684302817
_cell_length_c       4.721447685595653
_cell_angle_alpha    59.999999789438334
_cell_angle_beta     60.0000012752437
_cell_angle_gamma    59.99999903913376

_space_group_name_H-M_alt    "P 1"
_space_group_IT_number       1

loop_
  _space_group_symop_operation_xyz
  'x, y, z'

loop_
  _atom_site_type_symbol
  _atom_site_label
  _atom_site_symmetry_multiplicity
  _atom_site_fract_x
  _atom_site_fract_y
  _atom_site_fract_z
  _atom_site_occupancy
  Os  Os1       1.0  0.24999983078971608  0.2499997522240331  0.25000021478978834  1.0000
  Os  Os2       1.0  0.7500001455603701  0.7500004006273572  0.7499991485216962  1.0000
  Cr  Cr1       1.0  0.999999999135332  2.594003050723414e-09  0.999999977955388  1.0000
  O   O1        1.0  0.262647133871107  0.2626470915706366  0.7373529968991673  1.0000
  O   O2        1.0  0.7373528364306923  0.7373528226324837  0.26264730418845966  1.0000
  O   O3        1.0  0.7373529097252625  0.26264701949592606  0.26264730379957874  1.0000
  O   O4        1.0  0.2626471310298517  0.7373529621512681  0.7373528859794657  1.0000
  O   O5        1.0  0.2626470705708579  0.7373528857020344  0.2626472181320146  1.0000
  O   O6        1.0  0.7373529435788205  0.26264708038114293  0.7373529736698058  1.0000
