data_image0
_chemical_formula_structural       Os2CS6
_chemical_formula_sum              "Os2 C1 S6"
_cell_length_a       5.216126751683096
_cell_length_b       5.216126647017893
_cell_length_c       5.216127046730674
_cell_angle_alpha    59.99999912515222
_cell_angle_beta     59.99999887115645
_cell_angle_gamma    60.0000016991691

_space_group_name_H-M_alt    "P 1"
_space_group_IT_number       1

loop_
  _space_group_symop_operation_xyz
  'x, y, z'

loop_
  _atom_site_type_symbol
  _atom_site_label
  _atom_site_symmetry_multiplicity
  _atom_site_fract_x
  _atom_site_fract_y
  _atom_site_fract_z
  _atom_site_occupancy
  Os  Os1       1.0  0.2500019643199547  0.25000078281056887  0.24999874535639666  1.0000
  Os  Os2       1.0  0.750000122096818  0.7499986949484547  0.7499983026011795  1.0000
  C   C1        1.0  0.9999999967468948  0.9999993190809137  0.9999996269961428  1.0000
  S   S1        1.0  0.2622191361321129  0.2622199051144844  0.7377805518638682  1.0000
  S   S2        1.0  0.7377799479565763  0.7377807231629401  0.26222083257498435  1.0000
  S   S3        1.0  0.73777972602649  0.2622196550010635  0.2622197249892785  1.0000
  S   S4        1.0  0.2622202155674208  0.7377800411216419  0.7377809759329778  1.0000
  S   S5        1.0  0.2622192313227488  0.7377801673418439  0.2622200549672082  1.0000
  S   S6        1.0  0.7377796499943464  0.2622207239112154  0.7377811958445402  1.0000
