data_image0
_chemical_formula_structural       Os2CoS6
_chemical_formula_sum              "Os2 Co1 S6"
_cell_length_a       5.501409938904516
_cell_length_b       5.501410407870667
_cell_length_c       5.5014098375043226
_cell_angle_alpha    60.000003413156925
_cell_angle_beta     60.00000249670625
_cell_angle_gamma    60.00000660865578

_space_group_name_H-M_alt    "P 1"
_space_group_IT_number       1

loop_
  _space_group_symop_operation_xyz
  'x, y, z'

loop_
  _atom_site_type_symbol
  _atom_site_label
  _atom_site_symmetry_multiplicity
  _atom_site_fract_x
  _atom_site_fract_y
  _atom_site_fract_z
  _atom_site_occupancy
  Os  Os1       1.0  0.25000016296075567  0.25000401183895177  0.24999833080037923  1.0000
  Os  Os2       1.0  0.7500008971442917  0.7499975560659813  0.7500017298901663  1.0000
  Co  Co1       1.0  0.9999999437330302  0.9999999421178154  0.9999999080218747  1.0000
  S   S1        1.0  0.2646163917206038  0.26461757037425004  0.7353829413498201  1.0000
  S   S2        1.0  0.7353835888723337  0.7353821608844435  0.26461675061542983  1.0000
  S   S3        1.0  0.7353824491926604  0.26461792244803456  0.26461606197079496  1.0000
  S   S4        1.0  0.26461684104930694  0.7353816885937907  0.735384158883044  1.0000
  S   S5        1.0  0.26461709989135046  0.7353814204372552  0.26461691905249113  1.0000
  S   S6        1.0  0.7353826139792718  0.26461773199959154  0.7353831829608252  1.0000
