data_image0
_chemical_formula_structural       Os2CoO6
_chemical_formula_sum              "Os2 Co1 O6"
_cell_length_a       5.095320501452541
_cell_length_b       5.095320754601204
_cell_length_c       5.095322538186757
_cell_angle_alpha    60.00002463874879
_cell_angle_beta     60.00000717955648
_cell_angle_gamma    59.999998243903065

_space_group_name_H-M_alt    "P 1"
_space_group_IT_number       1

loop_
  _space_group_symop_operation_xyz
  'x, y, z'

loop_
  _atom_site_type_symbol
  _atom_site_label
  _atom_site_symmetry_multiplicity
  _atom_site_fract_x
  _atom_site_fract_y
  _atom_site_fract_z
  _atom_site_occupancy
  Os  Os1       1.0  0.2499641575967032  0.2500128274157846  0.2500974620093049  1.0000
  Os  Os2       1.0  0.7499916008040504  0.7500024632400434  0.7500701762785232  1.0000
  Co  Co1       1.0  0.9999992806020355  3.7016579671604447e-07  3.766145337252445e-06  1.0000
  O   O1        1.0  0.2516411111989449  0.2516335762535203  0.7483265134126245  1.0000
  O   O2        1.0  0.7483726250213373  0.7483561465296564  0.2516045805647172  1.0000
  O   O3        1.0  0.7483552277153336  0.25165206246577543  0.2516111879687295  1.0000
  O   O4        1.0  0.2516325089183467  0.7483739701007981  0.748343231939458  1.0000
  O   O5        1.0  0.2516477679420107  0.7483481260904505  0.2516186705215533  1.0000
  O   O6        1.0  0.7483959624643083  0.2516201439792654  0.7483245972120751  1.0000
