data_image0
_chemical_formula_structural       Os2CO6
_chemical_formula_sum              "Os2 C1 O6"
_cell_length_a       4.767253177509572
_cell_length_b       4.767252524331952
_cell_length_c       4.767252197979937
_cell_angle_alpha    59.99998341126323
_cell_angle_beta     59.99998812074818
_cell_angle_gamma    59.999992503541606

_space_group_name_H-M_alt    "P 1"
_space_group_IT_number       1

loop_
  _space_group_symop_operation_xyz
  'x, y, z'

loop_
  _atom_site_type_symbol
  _atom_site_label
  _atom_site_symmetry_multiplicity
  _atom_site_fract_x
  _atom_site_fract_y
  _atom_site_fract_z
  _atom_site_occupancy
  Os  Os1       1.0  0.2499976259636027  0.24999985277976514  0.250005892852191  1.0000
  Os  Os2       1.0  0.7500032175239204  0.7499962827659407  0.7499971199458964  1.0000
  C   C1        1.0  1.56394719553864e-07  0.9999995889472473  4.0002282845111963e-07  1.0000
  O   O1        1.0  0.22838521016768148  0.22838656101595248  0.7716134249571202  1.0000
  O   O2        1.0  0.771614292092291  0.7716148771101002  0.2283854990313549  1.0000
  O   O3        1.0  0.7716141737836143  0.22838610943677282  0.22838536044900862  1.0000
  O   O4        1.0  0.22838552090087147  0.7716154417287946  0.7716133772450983  1.0000
  O   O5        1.0  0.22838476085623732  0.7716142863353092  0.2283858728542425  1.0000
  O   O6        1.0  0.7716150080376661  0.22838705673480195  0.7716130681297907  1.0000
