data_image0
_chemical_formula_structural       Os2FeS6
_chemical_formula_sum              "Os2 Fe1 S6"
_cell_length_a       5.533767281010332
_cell_length_b       5.533766710435092
_cell_length_c       5.5337665924327615
_cell_angle_alpha    59.999996557812594
_cell_angle_beta     59.99999642459315
_cell_angle_gamma    60.0000010550875

_space_group_name_H-M_alt    "P 1"
_space_group_IT_number       1

loop_
  _space_group_symop_operation_xyz
  'x, y, z'

loop_
  _atom_site_type_symbol
  _atom_site_label
  _atom_site_symmetry_multiplicity
  _atom_site_fract_x
  _atom_site_fract_y
  _atom_site_fract_z
  _atom_site_occupancy
  Os  Os1       1.0  0.24999953361073887  0.25000278791808606  0.24999673759302482  1.0000
  Os  Os2       1.0  0.7499991858074113  0.7500022331317711  0.750002297524359  1.0000
  Fe  Fe1       1.0  8.994288597777891e-08  0.9999996237524252  6.906176669702307e-08  1.0000
  S   S1        1.0  0.2652997761471584  0.26529857193330597  0.7347018245941126  1.0000
  S   S2        1.0  0.7347012299220541  0.7346999710186456  0.26529798345877087  1.0000
  S   S3        1.0  0.7347011031836446  0.26529909007414887  0.26529918314909523  1.0000
  S   S4        1.0  0.26529873636804857  0.7346993842678704  0.7347019165111923  1.0000
  S   S5        1.0  0.26530004326306733  0.7347002801969782  0.26529867162009957  1.0000
  S   S6        1.0  0.7347002778841547  0.26529807020470586  0.7347013131412826  1.0000
