data_image0
_chemical_formula_structural       Os2FeO6
_chemical_formula_sum              "Os2 Fe1 O6"
_cell_length_a       4.605136446997696
_cell_length_b       4.605136516511584
_cell_length_c       4.605136476753486
_cell_angle_alpha    60.00000087632089
_cell_angle_beta     59.99999979485361
_cell_angle_gamma    60.000000185829435

_space_group_name_H-M_alt    "P 1"
_space_group_IT_number       1

loop_
  _space_group_symop_operation_xyz
  'x, y, z'

loop_
  _atom_site_type_symbol
  _atom_site_label
  _atom_site_symmetry_multiplicity
  _atom_site_fract_x
  _atom_site_fract_y
  _atom_site_fract_z
  _atom_site_occupancy
  Os  Os1       1.0  0.2500006249730741  0.2499997081819546  0.25000007594252494  1.0000
  Os  Os2       1.0  0.7500006168764677  0.7500007548310863  0.7499998983881199  1.0000
  Fe  Fe1       1.0  0.9999999160644745  1.8616633996174845e-08  0.9999999957441447  1.0000
  O   O1        1.0  0.25971400096310554  0.25971423001291316  0.7402857582755074  1.0000
  O   O2        1.0  0.7402856407581258  0.7402856399273665  0.25971419433919374  1.0000
  O   O3        1.0  0.740285425166384  0.25971417533219027  0.25971426755776467  1.0000
  O   O4        1.0  0.2597141503494492  0.7402856600343417  0.740285804934135  1.0000
  O   O5        1.0  0.2597139973320168  0.7402857578934571  0.25971431174043236  1.0000
  O   O6        1.0  0.7402856183025164  0.25971407747307435  0.7402857059483047  1.0000
