data_image0
_chemical_formula_structural       Os2GeS6
_chemical_formula_sum              "Os2 Ge1 S6"
_cell_length_a       5.556853763200692
_cell_length_b       5.556850688944978
_cell_length_c       5.556852249206202
_cell_angle_alpha    60.00004737666281
_cell_angle_beta     60.000059644329696
_cell_angle_gamma    60.00005641823569

_space_group_name_H-M_alt    "P 1"
_space_group_IT_number       1

loop_
  _space_group_symop_operation_xyz
  'x, y, z'

loop_
  _atom_site_type_symbol
  _atom_site_label
  _atom_site_symmetry_multiplicity
  _atom_site_fract_x
  _atom_site_fract_y
  _atom_site_fract_z
  _atom_site_occupancy
  Os  Os1       1.0  0.2500090484697782  0.24999916345165307  0.25000431641853255  1.0000
  Os  Os2       1.0  0.7499941175046592  0.7499955221326864  0.7499966313983873  1.0000
  Ge  Ge1       1.0  0.9999998219603625  3.283997810515798e-07  0.9999999194212609  1.0000
  S   S1        1.0  0.272303611658584  0.2723036050157472  0.7276919031140254  1.0000
  S   S2        1.0  0.7276941784251919  0.727698792453121  0.2723081268488222  1.0000
  S   S3        1.0  0.7276909252188855  0.27230341594164675  0.27230393314528606  1.0000
  S   S4        1.0  0.2723085529325487  0.7276978883307067  0.7276950975459794  1.0000
  S   S5        1.0  0.2723046784970154  0.7276935040931325  0.27230240210991435  1.0000
  S   S6        1.0  0.7276950131819648  0.27230782662815123  0.7276977125122054  1.0000
