data_image0
_chemical_formula_structural       Os2GeSe6
_chemical_formula_sum              "Os2 Ge1 Se6"
_cell_length_a       6.3591422245780524
_cell_length_b       6.359142502507848
_cell_length_c       6.359143191493538
_cell_angle_alpha    60.0000053657079
_cell_angle_beta     60.0000055934688
_cell_angle_gamma    60.000002515257584

_space_group_name_H-M_alt    "P 1"
_space_group_IT_number       1

loop_
  _space_group_symop_operation_xyz
  'x, y, z'

loop_
  _atom_site_type_symbol
  _atom_site_label
  _atom_site_symmetry_multiplicity
  _atom_site_fract_x
  _atom_site_fract_y
  _atom_site_fract_z
  _atom_site_occupancy
  Os  Os1       1.0  0.24999969522672275  0.25000067922064695  0.2500020158120263  1.0000
  Os  Os2       1.0  0.7500010636276221  0.7500011209049391  0.7499981494962322  1.0000
  Ge  Ge1       1.0  0.9999999358580599  9.437199743426635e-08  2.5770983802611285e-08  1.0000
  Se  Se1       1.0  0.26678765565156715  0.26678751115833216  0.7332114950029937  1.0000
  Se  Se2       1.0  0.7332126882230058  0.7332122763399403  0.2667880631085992  1.0000
  Se  Se3       1.0  0.7332116692137505  0.2667867861724721  0.26678834765370396  1.0000
  Se  Se4       1.0  0.26678720400452827  0.7332127393953926  0.7332119603832261  1.0000
  Se  Se5       1.0  0.26678685824050014  0.7332115841110523  0.2667882979505969  1.0000
  Se  Se6       1.0  0.733213209867186  0.26678723848172536  0.7332116351810319  1.0000
