data_image0
_chemical_formula_structural       Os2GeO6
_chemical_formula_sum              "Os2 Ge1 O6"
_cell_length_a       4.900064515091586
_cell_length_b       4.900064288987929
_cell_length_c       4.900064421372771
_cell_angle_alpha    59.999996848363004
_cell_angle_beta     59.99999761256767
_cell_angle_gamma    59.999996797164854

_space_group_name_H-M_alt    "P 1"
_space_group_IT_number       1

loop_
  _space_group_symop_operation_xyz
  'x, y, z'

loop_
  _atom_site_type_symbol
  _atom_site_label
  _atom_site_symmetry_multiplicity
  _atom_site_fract_x
  _atom_site_fract_y
  _atom_site_fract_z
  _atom_site_occupancy
  Os  Os1       1.0  0.24999908551042468  0.2499977884969565  0.25000204063278825  1.0000
  Os  Os2       1.0  0.7499987665749763  0.7500001889801696  0.7500026836935626  1.0000
  Ge  Ge1       1.0  0.9999999805762106  2.9993359917011336e-08  0.9999999824704777  1.0000
  O   O1        1.0  0.25658343283418333  0.2565829584493787  0.7434164877248518  1.0000
  O   O2        1.0  0.7434168522860347  0.7434173910026458  0.25658210149255745  1.0000
  O   O3        1.0  0.7434175568907712  0.25658350171064004  0.2565823840239092  1.0000
  O   O4        1.0  0.25658299066636653  0.7434177500416143  0.7434159534328024  1.0000
  O   O5        1.0  0.25658387142220657  0.7434176194773457  0.2565820359870207  1.0000
  O   O6        1.0  0.7434174600782264  0.2565828074575144  0.7434163219067365  1.0000
