data_image0
_chemical_formula_structural       Os2IrO6
_chemical_formula_sum              "Os2 Ir1 O6"
_cell_length_a       4.803209784760475
_cell_length_b       4.803214368438366
_cell_length_c       4.803209764463819
_cell_angle_alpha    60.00004071446511
_cell_angle_beta     60.00003645220759
_cell_angle_gamma    60.000033942278726

_space_group_name_H-M_alt    "P 1"
_space_group_IT_number       1

loop_
  _space_group_symop_operation_xyz
  'x, y, z'

loop_
  _atom_site_type_symbol
  _atom_site_label
  _atom_site_symmetry_multiplicity
  _atom_site_fract_x
  _atom_site_fract_y
  _atom_site_fract_z
  _atom_site_occupancy
  Os  Os1       1.0  0.25000869696655587  0.2500076643308849  0.24999136529196428  1.0000
  Os  Os2       1.0  0.7500101367235286  0.7499918186144335  0.7499741009006622  1.0000
  Ir  Ir1       1.0  0.9999977168215177  0.9999996302729023  3.5062445090794555e-06  1.0000
  O   O1        1.0  0.2674477226995403  0.2674514449476405  0.7325540690496919  1.0000
  O   O2        1.0  0.7325475558542657  0.7325480685968148  0.26745701593181903  1.0000
  O   O3        1.0  0.7325473680207927  0.26745068278185247  0.26745514874769466  1.0000
  O   O4        1.0  0.26744935042621387  0.7325497614552308  0.732552833473573  1.0000
  O   O5        1.0  0.26744675760401637  0.7325493341127931  0.26745691713669556  1.0000
  O   O6        1.0  0.7325442752206714  0.26745254568636256  0.7325552158419595  1.0000
