data_image0
_chemical_formula_structural       Os2IrS6
_chemical_formula_sum              "Os2 Ir1 S6"
_cell_length_a       5.7270669629715965
_cell_length_b       5.727066722847131
_cell_length_c       5.727066320352655
_cell_angle_alpha    60.00000831920701
_cell_angle_beta     60.00000915345628
_cell_angle_gamma    60.00000907953022

_space_group_name_H-M_alt    "P 1"
_space_group_IT_number       1

loop_
  _space_group_symop_operation_xyz
  'x, y, z'

loop_
  _atom_site_type_symbol
  _atom_site_label
  _atom_site_symmetry_multiplicity
  _atom_site_fract_x
  _atom_site_fract_y
  _atom_site_fract_z
  _atom_site_occupancy
  Os  Os1       1.0  0.2500004562840462  0.250002392317072  0.2499986321976591  1.0000
  Os  Os2       1.0  0.7499978616804791  0.750000846931308  0.7499985365347804  1.0000
  Ir  Ir1       1.0  8.405216946519405e-08  0.9999998567191595  1.448565809974439e-07  1.0000
  S   S1        1.0  0.27651174095080483  0.27651038385571486  0.7234887641247458  1.0000
  S   S2        1.0  0.7234892922997846  0.7234884778421784  0.2765119840928355  1.0000
  S   S3        1.0  0.7234884104436712  0.276510674123684  0.27651164571121156  1.0000
  S   S4        1.0  0.2765121037239315  0.7234881298341547  0.7234896772773929  1.0000
  S   S5        1.0  0.27651149047836193  0.7234878092584612  0.2765110214034636  1.0000
  S   S6        1.0  0.7234885039455388  0.2765114651737497  0.7234895596842437  1.0000
