data_image0
_chemical_formula_structural       Os2IrSe6
_chemical_formula_sum              "Os2 Ir1 Se6"
_cell_length_a       6.390892709609595
_cell_length_b       6.390893434718239
_cell_length_c       6.390892725164946
_cell_angle_alpha    60.00001042320091
_cell_angle_beta     60.00000277184296
_cell_angle_gamma    60.000008874045726

_space_group_name_H-M_alt    "P 1"
_space_group_IT_number       1

loop_
  _space_group_symop_operation_xyz
  'x, y, z'

loop_
  _atom_site_type_symbol
  _atom_site_label
  _atom_site_symmetry_multiplicity
  _atom_site_fract_x
  _atom_site_fract_y
  _atom_site_fract_z
  _atom_site_occupancy
  Os  Os1       1.0  0.25000084461332495  0.2500052733066676  0.249998102594766  1.0000
  Os  Os2       1.0  0.7500024822367991  0.749996949223036  0.7499989965172013  1.0000
  Ir  Ir1       1.0  7.708759188281041e-08  1.2648175757578303e-07  0.9999997073186853  1.0000
  Se  Se1       1.0  0.2664946521446031  0.26649736010306163  0.7335033599176066  1.0000
  Se  Se2       1.0  0.7335053054427288  0.7335026930726462  0.26649699200309795  1.0000
  Se  Se3       1.0  0.7335026501816226  0.26649658711974994  0.2664952277817687  1.0000
  Se  Se4       1.0  0.26649557363556364  0.733502352633044  0.7335058952443694  1.0000
  Se  Se5       1.0  0.2664950196083769  0.7335015515396036  0.26649690477378796  1.0000
  Se  Se6       1.0  0.7335033950398373  0.2664971084202252  0.7335048135170803  1.0000
