data_image0
_chemical_formula_structural       Os2MnO6
_chemical_formula_sum              "Os2 Mn1 O6"
_cell_length_a       4.72257444825333
_cell_length_b       4.722574307133204
_cell_length_c       4.722574330710328
_cell_angle_alpha    60.00000056070716
_cell_angle_beta     60.00000154355191
_cell_angle_gamma    60.000002291837575

_space_group_name_H-M_alt    "P 1"
_space_group_IT_number       1

loop_
  _space_group_symop_operation_xyz
  'x, y, z'

loop_
  _atom_site_type_symbol
  _atom_site_label
  _atom_site_symmetry_multiplicity
  _atom_site_fract_x
  _atom_site_fract_y
  _atom_site_fract_z
  _atom_site_occupancy
  Os  Os1       1.0  0.2500011383353443  0.24999994621531635  0.2499996626018459  1.0000
  Os  Os2       1.0  0.7499995746510868  0.749999623394973  0.7499997239400829  1.0000
  Mn  Mn1       1.0  0.9999999364028435  4.408752647220483e-08  5.6339576668471345e-08  1.0000
  O   O1        1.0  0.2567784136670561  0.25677841951336583  0.743221537363366  1.0000
  O   O2        1.0  0.7432212898925509  0.7432217284215312  0.2567786936239522  1.0000
  O   O3        1.0  0.74322143498628  0.25677853171497456  0.256778422976562  1.0000
  O   O4        1.0  0.25677842552793667  0.7432215487919421  0.7432216806653642  1.0000
  O   O5        1.0  0.2567784144197601  0.7432215201792686  0.2567784517533625  1.0000
  O   O6        1.0  0.7432213822006642  0.2567786199754788  0.7432217641209814  1.0000
