data_image0
_chemical_formula_structural       Os2MnS6
_chemical_formula_sum              "Os2 Mn1 S6"
_cell_length_a       5.602048225186659
_cell_length_b       5.60204800057153
_cell_length_c       5.602048143771724
_cell_angle_alpha    59.99999984097621
_cell_angle_beta     60.000000525403124
_cell_angle_gamma    59.99999965537765

_space_group_name_H-M_alt    "P 1"
_space_group_IT_number       1

loop_
  _space_group_symop_operation_xyz
  'x, y, z'

loop_
  _atom_site_type_symbol
  _atom_site_label
  _atom_site_symmetry_multiplicity
  _atom_site_fract_x
  _atom_site_fract_y
  _atom_site_fract_z
  _atom_site_occupancy
  Os  Os1       1.0  0.2500003608239972  0.25000025994056446  0.2499993282951581  1.0000
  Os  Os2       1.0  0.7500005511416797  0.7499980885542283  0.7499984448197343  1.0000
  Mn  Mn1       1.0  0.9999999450938111  1.7708583668262352e-07  8.70702746697589e-08  1.0000
  S   S1        1.0  0.26716182694616697  0.267162826163953  0.732837838473702  1.0000
  S   S2        1.0  0.7328377717624301  0.7328376626646054  0.26716305909458776  1.0000
  S   S3        1.0  0.7328374836802961  0.2671623516149988  0.26716248418376776  1.0000
  S   S4        1.0  0.26716270745710446  0.732837695592092  0.7328379863237527  1.0000
  S   S5        1.0  0.26716188446655775  0.7328376286451821  0.26716278498437845  1.0000
  S   S6        1.0  0.7328375237709002  0.26716326463867895  0.7328379591802345  1.0000
