data_image0
_chemical_formula_structural       Os2MnSe6
_chemical_formula_sum              "Os2 Mn1 Se6"
_cell_length_a       6.1330212512128535
_cell_length_b       6.1330212830681425
_cell_length_c       6.133021208193175
_cell_angle_alpha    59.999993622208905
_cell_angle_beta     59.99999431509252
_cell_angle_gamma    59.999993920619445

_space_group_name_H-M_alt    "P 1"
_space_group_IT_number       1

loop_
  _space_group_symop_operation_xyz
  'x, y, z'

loop_
  _atom_site_type_symbol
  _atom_site_label
  _atom_site_symmetry_multiplicity
  _atom_site_fract_x
  _atom_site_fract_y
  _atom_site_fract_z
  _atom_site_occupancy
  Os  Os1       1.0  0.2499996184712696  0.24999721381739307  0.24999883296979375  1.0000
  Os  Os2       1.0  0.7500006869021494  0.7500027585745478  0.7500006686233097  1.0000
  Mn  Mn1       1.0  5.419857784083417e-09  1.1981804398174341e-08  9.728282242681378e-08  1.0000
  Se  Se1       1.0  0.26897274949182703  0.2689714870561228  0.7310289845257956  1.0000
  Se  Se2       1.0  0.7310271692109661  0.7310285552297076  0.26897091188076494  1.0000
  Se  Se3       1.0  0.7310292045909529  0.268971736648398  0.2689725680952762  1.0000
  Se  Se4       1.0  0.26897092154180824  0.7310281239132892  0.7310275991684623  1.0000
  Se  Se5       1.0  0.26897208968227443  0.7310297686456967  0.26897215544691794  1.0000
  Se  Se6       1.0  0.7310275605069234  0.2689703674976347  0.7310281804795332  1.0000
