data_image0
_chemical_formula_structural       Os2NiSe6
_chemical_formula_sum              "Os2 Ni1 Se6"
_cell_length_a       6.097776315967549
_cell_length_b       6.097776304078464
_cell_length_c       6.097776070480468
_cell_angle_alpha    59.99999851058231
_cell_angle_beta     59.999997470219995
_cell_angle_gamma    60.00000004643873

_space_group_name_H-M_alt    "P 1"
_space_group_IT_number       1

loop_
  _space_group_symop_operation_xyz
  'x, y, z'

loop_
  _atom_site_type_symbol
  _atom_site_label
  _atom_site_symmetry_multiplicity
  _atom_site_fract_x
  _atom_site_fract_y
  _atom_site_fract_z
  _atom_site_occupancy
  Os  Os1       1.0  0.2500056942102983  0.24999780704985605  0.24999627627534698  1.0000
  Os  Os2       1.0  0.7500044477436391  0.7499973879578851  0.7499989633411815  1.0000
  Ni  Ni1       1.0  0.9999998893646808  4.217872237708272e-08  5.3907606564336736e-08  1.0000
  Se  Se1       1.0  0.26592421975675007  0.26592770687937173  0.7340750499061613  1.0000
  Se  Se2       1.0  0.7340719899169105  0.7340759379325478  0.2659261009568233  1.0000
  Se  Se3       1.0  0.7340725136765921  0.26592649822014097  0.2659256693292138  1.0000
  Se  Se4       1.0  0.2659245896272528  0.7340735794768607  0.7340746568324318  1.0000
  Se  Se5       1.0  0.2659248120540387  0.7340746256754939  0.2659271232231655  1.0000
  Se  Se6       1.0  0.7340718158334956  0.2659264181150848  0.7340761440074387  1.0000
