data_image0
_chemical_formula_structural       Os2NiO6
_chemical_formula_sum              "Os2 Ni1 O6"
_cell_length_a       4.5924099125666284
_cell_length_b       4.592410015631541
_cell_length_c       4.59240995267606
_cell_angle_alpha    60.00000556834627
_cell_angle_beta     60.000005273043996
_cell_angle_gamma    60.0000038010473

_space_group_name_H-M_alt    "P 1"
_space_group_IT_number       1

loop_
  _space_group_symop_operation_xyz
  'x, y, z'

loop_
  _atom_site_type_symbol
  _atom_site_label
  _atom_site_symmetry_multiplicity
  _atom_site_fract_x
  _atom_site_fract_y
  _atom_site_fract_z
  _atom_site_occupancy
  Os  Os1       1.0  0.2500036077394346  0.24999951011423743  0.2500020004903858  1.0000
  Os  Os2       1.0  0.7499955463643322  0.7500039147910892  0.7499930398645821  1.0000
  Ni  Ni1       1.0  9.915864973245672e-08  0.9999996346362163  5.903788066499422e-07  1.0000
  O   O1        1.0  0.2585289101613822  0.25852734635904245  0.7414722621937476  1.0000
  O   O2        1.0  0.7414713656793568  0.7414716648450711  0.25852910360350523  1.0000
  O   O3        1.0  0.7414721695462065  0.2585274348311652  0.258529391616847  1.0000
  O   O4        1.0  0.258528124047625  0.7414715683722815  0.7414719780142173  1.0000
  O   O5        1.0  0.2585285796638509  0.741470459762082  0.2585288820260823  1.0000
  O   O6        1.0  0.7414715753609087  0.2585285141055842  0.7414725410723179  1.0000
