data_image0
_chemical_formula_structural       Os2PdO6
_chemical_formula_sum              "Os2 Pd1 O6"
_cell_length_a       4.619599705787155
_cell_length_b       4.6196000013538
_cell_length_c       4.619600188856178
_cell_angle_alpha    60.000002235507836
_cell_angle_beta     59.9999985478593
_cell_angle_gamma    60.00000314534964

_space_group_name_H-M_alt    "P 1"
_space_group_IT_number       1

loop_
  _space_group_symop_operation_xyz
  'x, y, z'

loop_
  _atom_site_type_symbol
  _atom_site_label
  _atom_site_symmetry_multiplicity
  _atom_site_fract_x
  _atom_site_fract_y
  _atom_site_fract_z
  _atom_site_occupancy
  Os  Os1       1.0  0.2500002341705101  0.24999969142145353  0.24999978487048288  1.0000
  Os  Os2       1.0  0.7499999449944474  0.7500003494878997  0.749999846905498  1.0000
  Pd  Pd1       1.0  0.9999999976520549  0.9999999920464212  0.9999999553629032  1.0000
  O   O1        1.0  0.26554561994426706  0.265545791091107  0.7344543708792238  1.0000
  O   O2        1.0  0.734454360065364  0.7344541199098273  0.26554570900294727  1.0000
  O   O3        1.0  0.7344541883954233  0.2655457155649427  0.26554585069913156  1.0000
  O   O4        1.0  0.2655456704955216  0.7344543863218449  0.7344543479924133  1.0000
  O   O5        1.0  0.2655456929087286  0.7344541481575354  0.2655458076205547  1.0000
  O   O6        1.0  0.7344543469389214  0.26554577079698033  0.7344543466002919  1.0000
