data_image0
_chemical_formula_structural       Os2PSe6
_chemical_formula_sum              "Os2 P1 Se6"
_cell_length_a       6.03835586157667
_cell_length_b       6.038356404005282
_cell_length_c       6.038354843436897
_cell_angle_alpha    59.99998228412712
_cell_angle_beta     59.999976168751466
_cell_angle_gamma    59.99998436506602

_space_group_name_H-M_alt    "P 1"
_space_group_IT_number       1

loop_
  _space_group_symop_operation_xyz
  'x, y, z'

loop_
  _atom_site_type_symbol
  _atom_site_label
  _atom_site_symmetry_multiplicity
  _atom_site_fract_x
  _atom_site_fract_y
  _atom_site_fract_z
  _atom_site_occupancy
  Os  Os1       1.0  0.24999981111719066  0.25000299112195956  0.24999422237543276  1.0000
  Os  Os2       1.0  0.7500024697349826  0.749999760933809  0.7500083440859425  1.0000
  P   P1        1.0  0.9999999009295362  0.9999999472648677  0.9999999251995307  1.0000
  Se  Se1       1.0  0.2684545929173031  0.2684562293159067  0.7315468054649283  1.0000
  Se  Se2       1.0  0.7315453511820407  0.731543711551404  0.2684508925436724  1.0000
  Se  Se3       1.0  0.7315454433694216  0.2684574669662925  0.268453327095241  1.0000
  Se  Se4       1.0  0.26845233719220474  0.7315424130526385  0.7315466473312942  1.0000
  Se  Se5       1.0  0.2684569585944057  0.7315446393042709  0.26845390157618715  1.0000
  Se  Se6       1.0  0.731543155314114  0.2684528473493887  0.7315459289710703  1.0000
