data_image0
_chemical_formula_structural       Os2PdSe6
_chemical_formula_sum              "Os2 Pd1 Se6"
_cell_length_a       6.3196955829384684
_cell_length_b       6.319694683873794
_cell_length_c       6.319693348740131
_cell_angle_alpha    59.999994430175796
_cell_angle_beta     60.000000426820336
_cell_angle_gamma    60.00000499694807

_space_group_name_H-M_alt    "P 1"
_space_group_IT_number       1

loop_
  _space_group_symop_operation_xyz
  'x, y, z'

loop_
  _atom_site_type_symbol
  _atom_site_label
  _atom_site_symmetry_multiplicity
  _atom_site_fract_x
  _atom_site_fract_y
  _atom_site_fract_z
  _atom_site_occupancy
  Os  Os1       1.0  0.2500063525506204  0.24999983532580924  0.24999527958011175  1.0000
  Os  Os2       1.0  0.7499975116272212  0.7500021106204341  0.7500075046447139  1.0000
  Pd  Pd1       1.0  0.9999999199571222  0.9999999496125003  0.9999998690031483  1.0000
  Se  Se1       1.0  0.27348337471350326  0.27348082910660115  0.7265188918163381  1.0000
  Se  Se2       1.0  0.7265160281520824  0.7265197447493313  0.273478183691769  1.0000
  Se  Se3       1.0  0.7265161548995618  0.2734832076543469  0.27348080507500927  1.0000
  Se  Se4       1.0  0.27348101479826026  0.726516747985191  0.7265191930335  1.0000
  Se  Se5       1.0  0.2734842484731629  0.7265176982300615  0.27347975226410165  1.0000
  Se  Se6       1.0  0.7265153434509931  0.2734798911347228  0.7265205311749767  1.0000
