data_image0
_chemical_formula_structural       Os2PS6
_chemical_formula_sum              "Os2 P1 S6"
_cell_length_a       6.421858564145225
_cell_length_b       6.200439463164901
_cell_length_c       6.405708417243799
_cell_angle_alpha    55.212557385025896
_cell_angle_beta     56.89982692033904
_cell_angle_gamma    55.11036982199851

_space_group_name_H-M_alt    "P 1"
_space_group_IT_number       1

loop_
  _space_group_symop_operation_xyz
  'x, y, z'

loop_
  _atom_site_type_symbol
  _atom_site_label
  _atom_site_symmetry_multiplicity
  _atom_site_fract_x
  _atom_site_fract_y
  _atom_site_fract_z
  _atom_site_occupancy
  Os  Os1       1.0  0.35536014216200973  0.28762634500815054  0.35469624675478284  1.0000
  Os  Os2       1.0  0.6445372019370028  0.7120226914201122  0.6450377812509734  1.0000
  P   P1        1.0  0.00016183574400167227  0.00017677216229720484  0.0001222090803500412  1.0000
  S   S1        1.0  0.3768101901031862  0.09199188547009426  0.7714125211622009  1.0000
  S   S2        1.0  0.623626741104621  0.9078579748669235  0.22812075330556164  1.0000
  S   S3        1.0  0.7480780783367489  0.40195757411161653  0.07507117972997807  1.0000
  S   S4        1.0  0.251524624940017  0.5983494219590081  0.9253405412033893  1.0000
  S   S5        1.0  0.0731450736274358  0.7587209050576567  0.3921789889911081  1.0000
  S   S6        1.0  0.9267562438367364  0.24129606058027173  0.6080234530886226  1.0000
