data_image0
_chemical_formula_structural       Os2PdS6
_chemical_formula_sum              "Os2 Pd1 S6"
_cell_length_a       5.659893876264432
_cell_length_b       5.6598926830812735
_cell_length_c       5.659891567221897
_cell_angle_alpha    59.99999091825332
_cell_angle_beta     59.99998652229208
_cell_angle_gamma    59.99998104172497

_space_group_name_H-M_alt    "P 1"
_space_group_IT_number       1

loop_
  _space_group_symop_operation_xyz
  'x, y, z'

loop_
  _atom_site_type_symbol
  _atom_site_label
  _atom_site_symmetry_multiplicity
  _atom_site_fract_x
  _atom_site_fract_y
  _atom_site_fract_z
  _atom_site_occupancy
  Os  Os1       1.0  0.25000156924978545  0.25000134047290434  0.24999998175400376  1.0000
  Os  Os2       1.0  0.7500016046560167  0.7499986722543722  0.7500047049712415  1.0000
  Pd  Pd1       1.0  0.9999996962058916  0.9999998831493788  0.9999997827524117  1.0000
  S   S1        1.0  0.27695990684589955  0.2769610077257791  0.723039581297743  1.0000
  S   S2        1.0  0.7230394986019641  0.7230391283449035  0.2769582935444875  1.0000
  S   S3        1.0  0.7230386184123255  0.2769625147359831  0.2769583890350418  1.0000
  S   S4        1.0  0.27695893047736814  0.7230391209186575  0.7230395547517617  1.0000
  S   S5        1.0  0.2769614723333812  0.7230386956095021  0.2769596025602332  1.0000
  S   S6        1.0  0.7230386682147546  0.2769596941924652  0.7230401171145469  1.0000
