data_image0
_chemical_formula_structural       Os2PO6
_chemical_formula_sum              "Os2 P1 O6"
_cell_length_a       4.476404959713501
_cell_length_b       4.476405104755823
_cell_length_c       4.476404985896653
_cell_angle_alpha    60.00000139944749
_cell_angle_beta     60.00000167591039
_cell_angle_gamma    60.000000342103434

_space_group_name_H-M_alt    "P 1"
_space_group_IT_number       1

loop_
  _space_group_symop_operation_xyz
  'x, y, z'

loop_
  _atom_site_type_symbol
  _atom_site_label
  _atom_site_symmetry_multiplicity
  _atom_site_fract_x
  _atom_site_fract_y
  _atom_site_fract_z
  _atom_site_occupancy
  Os  Os1       1.0  0.2500002324865281  0.25000011430979335  0.24999922729717244  1.0000
  Os  Os2       1.0  0.7500000442940457  0.750000236225351  0.749999346339203  1.0000
  P   P1        1.0  0.9999988676915327  0.9999985061434992  6.191997589150442e-06  1.0000
  O   O1        1.0  0.2660001559628399  0.26599998706403977  0.7340006758754192  1.0000
  O   O2        1.0  0.7340017294804428  0.7340017670395593  0.26599904779470923  1.0000
  O   O3        1.0  0.7340026460232851  0.26599687301517966  0.2659980427155098  1.0000
  O   O4        1.0  0.266001067681488  0.733998599230254  0.7339998330546094  1.0000
  O   O5        1.0  0.26599682021699306  0.7340028104770613  0.26599788382569245  1.0000
  O   O6        1.0  0.7339984165245997  0.26600112969137796  0.7339997395618454  1.0000
