data_image0
_chemical_formula_structural       Os2RuSe6
_chemical_formula_sum              "Os2 Ru1 Se6"
_cell_length_a       6.39689708851997
_cell_length_b       6.396897541159849
_cell_length_c       6.39689593240241
_cell_angle_alpha    59.999999464615165
_cell_angle_beta     59.99999922925455
_cell_angle_gamma    60.000003695687326

_space_group_name_H-M_alt    "P 1"
_space_group_IT_number       1

loop_
  _space_group_symop_operation_xyz
  'x, y, z'

loop_
  _atom_site_type_symbol
  _atom_site_label
  _atom_site_symmetry_multiplicity
  _atom_site_fract_x
  _atom_site_fract_y
  _atom_site_fract_z
  _atom_site_occupancy
  Os  Os1       1.0  0.25000046021431044  0.2500000374641299  0.2499996659957105  1.0000
  Os  Os2       1.0  0.7499952290195869  0.7499950865877952  0.7500115807189232  1.0000
  Ru  Ru1       1.0  5.637713413387068e-08  9.572950611160843e-09  1.1397122460446325e-07  1.0000
  Se  Se1       1.0  0.26488799215092995  0.26488779284873537  0.7351122040745105  1.0000
  Se  Se2       1.0  0.7351119041159065  0.7351119415414951  0.2648845900200638  1.0000
  Se  Se3       1.0  0.735111628959169  0.2648924057298977  0.26488362538770555  1.0000
  Se  Se4       1.0  0.26488861034558825  0.7351118068908017  0.7351122509839344  1.0000
  Se  Se5       1.0  0.2648923501016407  0.7351121043978955  0.2648836440527325  1.0000
  Se  Se6       1.0  0.7351117053562828  0.26488884767281223  0.7351123343890854  1.0000
