data_image0
_chemical_formula_structural       Os2RuS6
_chemical_formula_sum              "Os2 Ru1 S6"
_cell_length_a       5.664201802538774
_cell_length_b       5.664200381505104
_cell_length_c       5.664202052847837
_cell_angle_alpha    60.00001377958279
_cell_angle_beta     60.00002408796033
_cell_angle_gamma    60.00001165554065

_space_group_name_H-M_alt    "P 1"
_space_group_IT_number       1

loop_
  _space_group_symop_operation_xyz
  'x, y, z'

loop_
  _atom_site_type_symbol
  _atom_site_label
  _atom_site_symmetry_multiplicity
  _atom_site_fract_x
  _atom_site_fract_y
  _atom_site_fract_z
  _atom_site_occupancy
  Os  Os1       1.0  0.25000628217729237  0.24999674712316075  0.2500015341346883  1.0000
  Os  Os2       1.0  0.7500003240759583  0.7500048452381529  0.7499910749610361  1.0000
  Ru  Ru1       1.0  0.999999573729228  0.9999999394568765  5.294136010864204e-07  1.0000
  S   S1        1.0  0.27485493695898544  0.27485284060355863  0.7251447967767076  1.0000
  S   S2        1.0  0.7251434603727692  0.7251476922530146  0.2748572344951527  1.0000
  S   S3        1.0  0.7251431606179023  0.2748513115328987  0.2748573911287023  1.0000
  S   S4        1.0  0.2748547701772933  0.725147245022122  0.7251448234632113  1.0000
  S   S5        1.0  0.2748524191637462  0.7251454493380871  0.27485589973817537  1.0000
  S   S6        1.0  0.7251451033436795  0.27485388562891916  0.7251467053361302  1.0000
