data_image0
_chemical_formula_structural       Os2RuO6
_chemical_formula_sum              "Os2 Ru1 O6"
_cell_length_a       5.359666378312878
_cell_length_b       5.359666811658515
_cell_length_c       5.3596668817798925
_cell_angle_alpha    60.00000253987233
_cell_angle_beta     60.000003853085815
_cell_angle_gamma    59.99999845959643

_space_group_name_H-M_alt    "P 1"
_space_group_IT_number       1

loop_
  _space_group_symop_operation_xyz
  'x, y, z'

loop_
  _atom_site_type_symbol
  _atom_site_label
  _atom_site_symmetry_multiplicity
  _atom_site_fract_x
  _atom_site_fract_y
  _atom_site_fract_z
  _atom_site_occupancy
  Os  Os1       1.0  0.24999645852437608  0.2500018172773253  0.25000585862167446  1.0000
  Os  Os2       1.0  0.7500055455011055  0.7500026891284237  0.7499963974734103  1.0000
  Ru  Ru1       1.0  9.7818051705105e-07  0.9999996572328727  0.9999988277626288  1.0000
  O   O1        1.0  0.25228236222917383  0.25228413308791225  0.7477142763901274  1.0000
  O   O2        1.0  0.7477183442818629  0.7477142994854056  0.2522836947335701  1.0000
  O   O3        1.0  0.7477158066092696  0.2522817209805846  0.25228524193194707  1.0000
  O   O4        1.0  0.2522802917631214  0.7477177193281734  0.7477159511232835  1.0000
  O   O5        1.0  0.2522821358584066  0.7477159995429484  0.25228451262161794  1.0000
  O   O6        1.0  0.7477180774499477  0.2522819348755991  0.747715077384903  1.0000
