data_image0
_chemical_formula_structural       Os2RhO6
_chemical_formula_sum              "Os2 Rh1 O6"
_cell_length_a       4.671786684842412
_cell_length_b       4.671786481243794
_cell_length_c       4.671786663367543
_cell_angle_alpha    60.000000591203104
_cell_angle_beta     60.00000084901778
_cell_angle_gamma    60.00000124983995

_space_group_name_H-M_alt    "P 1"
_space_group_IT_number       1

loop_
  _space_group_symop_operation_xyz
  'x, y, z'

loop_
  _atom_site_type_symbol
  _atom_site_label
  _atom_site_symmetry_multiplicity
  _atom_site_fract_x
  _atom_site_fract_y
  _atom_site_fract_z
  _atom_site_occupancy
  Os  Os1       1.0  0.24999994077050927  0.24999995394601246  0.24999992872110924  1.0000
  Os  Os2       1.0  0.74999990247504  0.7500000217542514  0.7500000492745246  1.0000
  Rh  Rh1       1.0  1.1764567011350713e-06  0.9999998295975211  2.8468009445865553e-07  1.0000
  O   O1        1.0  0.2719973831924783  0.271997255673459  0.7280027343767459  1.0000
  O   O2        1.0  0.7280021731282151  0.728002082983559  0.2719979196537983  1.0000
  O   O3        1.0  0.728002455413293  0.2719976211178698  0.27199757974562166  1.0000
  O   O4        1.0  0.2719977897382949  0.7280022759350903  0.728002420704394  1.0000
  O   O5        1.0  0.27199712938636733  0.7280028756194721  0.2719972557015377  1.0000
  O   O6        1.0  0.7280020570090039  0.2719980621995765  0.7280018076387058  1.0000
