data_image0
_chemical_formula_structural       Os2RhS6
_chemical_formula_sum              "Os2 Rh1 S6"
_cell_length_a       5.713996310023984
_cell_length_b       5.713996083760328
_cell_length_c       5.71399573340874
_cell_angle_alpha    59.99999491669883
_cell_angle_beta     59.9999964016514
_cell_angle_gamma    59.99999806874337

_space_group_name_H-M_alt    "P 1"
_space_group_IT_number       1

loop_
  _space_group_symop_operation_xyz
  'x, y, z'

loop_
  _atom_site_type_symbol
  _atom_site_label
  _atom_site_symmetry_multiplicity
  _atom_site_fract_x
  _atom_site_fract_y
  _atom_site_fract_z
  _atom_site_occupancy
  Os  Os1       1.0  0.25000167796230915  0.2500013355100562  0.24999852680134202  1.0000
  Os  Os2       1.0  0.7500006101024905  0.7500008364231725  0.7500021267396674  1.0000
  Rh  Rh1       1.0  0.999999887590155  0.9999999249805761  0.9999999449570954  1.0000
  S   S1        1.0  0.2749345850612049  0.27493457354291945  0.7250655081679657  1.0000
  S   S2        1.0  0.7250652769498276  0.7250651098888217  0.2749336754516395  1.0000
  S   S3        1.0  0.7250646420725436  0.27493488466581706  0.2749343256587605  1.0000
  S   S4        1.0  0.2749337307736677  0.7250646830216203  0.7250658354243725  1.0000
  S   S5        1.0  0.2749351316613963  0.7250649518610067  0.27493406942234694  1.0000
  S   S6        1.0  0.7250644085445899  0.27493373274059346  0.7250660405284217  1.0000
