data_image0
_chemical_formula_structural       Os2RhSe6
_chemical_formula_sum              "Os2 Rh1 Se6"
_cell_length_a       6.228337511828619
_cell_length_b       6.2283396248460665
_cell_length_c       6.2283365659865515
_cell_angle_alpha    59.9999923813556
_cell_angle_beta     59.999983240301205
_cell_angle_gamma    59.99999102235107

_space_group_name_H-M_alt    "P 1"
_space_group_IT_number       1

loop_
  _space_group_symop_operation_xyz
  'x, y, z'

loop_
  _atom_site_type_symbol
  _atom_site_label
  _atom_site_symmetry_multiplicity
  _atom_site_fract_x
  _atom_site_fract_y
  _atom_site_fract_z
  _atom_site_occupancy
  Os  Os1       1.0  0.24999571002899032  0.25000654254798704  0.24999267780902681  1.0000
  Os  Os2       1.0  0.7500028105465532  0.7499950672175844  0.7500041533582583  1.0000
  Rh  Rh1       1.0  0.9999997980289231  1.8877505041174117e-07  1.141708760487144e-07  1.0000
  Se  Se1       1.0  0.27259506324606964  0.2725992412973249  0.7274059911501962  1.0000
  Se  Se2       1.0  0.7274058358539125  0.7273998770298126  0.27259519296642876  1.0000
  Se  Se3       1.0  0.7274052409287577  0.27259935500935745  0.27259487736903765  1.0000
  Se  Se4       1.0  0.27259610320226535  0.727399240253526  0.7274063778755172  1.0000
  Se  Se5       1.0  0.272597140053185  0.7274023914869538  0.2725971021735971  1.0000
  Se  Se6       1.0  0.7274022924392809  0.2725980954595694  0.7274034758665152  1.0000
