data_image0
_chemical_formula_structural       Os2SiS6
_chemical_formula_sum              "Os2 Si1 S6"
_cell_length_a       5.548399400747765
_cell_length_b       5.54839626275742
_cell_length_c       5.5483976080319914
_cell_angle_alpha    59.99995209261233
_cell_angle_beta     59.99995926515605
_cell_angle_gamma    59.9999552719808

_space_group_name_H-M_alt    "P 1"
_space_group_IT_number       1

loop_
  _space_group_symop_operation_xyz
  'x, y, z'

loop_
  _atom_site_type_symbol
  _atom_site_label
  _atom_site_symmetry_multiplicity
  _atom_site_fract_x
  _atom_site_fract_y
  _atom_site_fract_z
  _atom_site_occupancy
  Os  Os1       1.0  0.2499991149264746  0.2499959889133912  0.24999853682314882  1.0000
  Os  Os2       1.0  0.750003912102126  0.7500083475339394  0.7500084773409865  1.0000
  Si  Si1       1.0  0.9999996546313816  2.4943486341971397e-07  0.9999994495959771  1.0000
  S   S1        1.0  0.266379335097429  0.26637697475839517  0.7336240064272569  1.0000
  S   S2        1.0  0.7336212673315969  0.7336219800843778  0.26637156046361304  1.0000
  S   S3        1.0  0.7336235211768928  0.26637783603293513  0.2663780694550486  1.0000
  S   S4        1.0  0.26637259736209945  0.7336219774829377  0.7336214079487746  1.0000
  S   S5        1.0  0.2663793615573374  0.7336256430241256  0.2663766163299389  1.0000
  S   S6        1.0  0.7336213275846671  0.2663709101814981  0.7336219463923169  1.0000
