data_image0
_chemical_formula_structural       Os2SO6
_chemical_formula_sum              "Os2 S1 O6"
_cell_length_a       4.887662825482949
_cell_length_b       4.887662940151012
_cell_length_c       4.887662728821398
_cell_angle_alpha    59.999999187997986
_cell_angle_beta     59.99999968044058
_cell_angle_gamma    59.99999915626669

_space_group_name_H-M_alt    "P 1"
_space_group_IT_number       1

loop_
  _space_group_symop_operation_xyz
  'x, y, z'

loop_
  _atom_site_type_symbol
  _atom_site_label
  _atom_site_symmetry_multiplicity
  _atom_site_fract_x
  _atom_site_fract_y
  _atom_site_fract_z
  _atom_site_occupancy
  Os  Os1       1.0  0.25000015258990227  0.25000012449082926  0.2500002943639512  1.0000
  Os  Os2       1.0  0.7500001439940224  0.7500001028473942  0.7499991068189196  1.0000
  S   S1        1.0  3.5699228363817056e-08  2.7563671819831955e-08  0.9999999520008077  1.0000
  O   O1        1.0  0.23397843566892598  0.23397849650293884  0.7660214261699118  1.0000
  O   O2        1.0  0.7660214553833391  0.766021522854846  0.2339787257440024  1.0000
  O   O3        1.0  0.766021522953418  0.2339782946579486  0.2339786699355923  1.0000
  O   O4        1.0  0.23397841904987798  0.7660215718467458  0.766021590216449  1.0000
  O   O5        1.0  0.2339783734070686  0.7660214055020969  0.2339785900715816  1.0000
  O   O6        1.0  0.7660214750510126  0.23397849357784778  0.76602164941625  1.0000
