data_image0
_chemical_formula_structural       Os2SeS6
_chemical_formula_sum              "Os2 Se1 S6"
_cell_length_a       5.70371350148453
_cell_length_b       5.703713128325204
_cell_length_c       5.703714445402618
_cell_angle_alpha    60.00000960411876
_cell_angle_beta     60.00001270333717
_cell_angle_gamma    60.00000575623203

_space_group_name_H-M_alt    "P 1"
_space_group_IT_number       1

loop_
  _space_group_symop_operation_xyz
  'x, y, z'

loop_
  _atom_site_type_symbol
  _atom_site_label
  _atom_site_symmetry_multiplicity
  _atom_site_fract_x
  _atom_site_fract_y
  _atom_site_fract_z
  _atom_site_occupancy
  Os  Os1       1.0  0.2499996886796499  0.24999634725146985  0.250003356402546  1.0000
  Os  Os2       1.0  0.7499990269726882  0.7500014272422404  0.7499918932937936  1.0000
  Se  Se1       1.0  0.999999868247988  0.9999998668688219  0.9999997274423224  1.0000
  S   S1        1.0  0.2635688786552709  0.26356734462713993  0.7364308113450501  1.0000
  S   S2        1.0  0.7364309545052491  0.7364329078246039  0.2635725289117243  1.0000
  S   S3        1.0  0.736431919635869  0.2635652442446943  0.2635711189328967  1.0000
  S   S4        1.0  0.26357049641684493  0.7364341407072228  0.736429601618267  1.0000
  S   S5        1.0  0.2635661143920594  0.7364327301215355  0.26357026826218893  1.0000
  S   S6        1.0  0.7364330602208167  0.2635699959922514  0.7364306969728489  1.0000
