data_image0
_chemical_formula_structural       Os2SeO6
_chemical_formula_sum              "Os2 Se1 O6"
_cell_length_a       5.052405644150077
_cell_length_b       5.052405883280331
_cell_length_c       5.052406892327698
_cell_angle_alpha    59.99999693792361
_cell_angle_beta     59.999994656987816
_cell_angle_gamma    59.999988241727536

_space_group_name_H-M_alt    "P 1"
_space_group_IT_number       1

loop_
  _space_group_symop_operation_xyz
  'x, y, z'

loop_
  _atom_site_type_symbol
  _atom_site_label
  _atom_site_symmetry_multiplicity
  _atom_site_fract_x
  _atom_site_fract_y
  _atom_site_fract_z
  _atom_site_occupancy
  Os  Os1       1.0  0.2499828548584006  0.24998682812425527  0.25002658171276043  1.0000
  Os  Os2       1.0  0.7500060690427492  0.7499978709920847  0.7500042872055563  1.0000
  Se  Se1       1.0  2.9662085353517203e-07  1.4544491347669846e-07  0.999999385095445  1.0000
  O   O1        1.0  0.2501084376412535  0.25011198612141355  0.7498850950171846  1.0000
  O   O2        1.0  0.7498925061523225  0.7498910172409152  0.2501056019705028  1.0000
  O   O3        1.0  0.7498950187860964  0.25011066574295093  0.25010664131960725  1.0000
  O   O4        1.0  0.25010764804931684  0.74989778210888  0.7498826213731784  1.0000
  O   O5        1.0  0.2501090687165815  0.749894766355883  0.25010789928505744  1.0000
  O   O6        1.0  0.7498981580602123  0.25010890120444634  0.7498818575581667  1.0000
