data_image0
_chemical_formula_structural       Os2SiO6
_chemical_formula_sum              "Os2 Si1 O6"
_cell_length_a       4.536224554523949
_cell_length_b       4.536218820269954
_cell_length_c       4.536227674530494
_cell_angle_alpha    59.99992258977223
_cell_angle_beta     59.9999087854262
_cell_angle_gamma    59.99997571433707

_space_group_name_H-M_alt    "P 1"
_space_group_IT_number       1

loop_
  _space_group_symop_operation_xyz
  'x, y, z'

loop_
  _atom_site_type_symbol
  _atom_site_label
  _atom_site_symmetry_multiplicity
  _atom_site_fract_x
  _atom_site_fract_y
  _atom_site_fract_z
  _atom_site_occupancy
  Os  Os1       1.0  0.25000113285182796  0.24999446685544338  0.24999990659049634  1.0000
  Os  Os2       1.0  0.749999106547573  0.7500054022664223  0.7500001986721644  1.0000
  Si  Si1       1.0  5.996152523336126e-07  1.1717684979239293e-06  0.9999993766402128  1.0000
  O   O1        1.0  0.26824782883831766  0.26824880210483887  0.7317511241026431  1.0000
  O   O2        1.0  0.731750595814585  0.7317496765537964  0.2682504492929874  1.0000
  O   O3        1.0  0.731750769755549  0.2682498297707236  0.268247498734208  1.0000
  O   O4        1.0  0.2682501678118528  0.7317498692560711  0.7317514761330116  1.0000
  O   O5        1.0  0.268248352025432  0.7317502812091132  0.2682493468753551  1.0000
  O   O6        1.0  0.7317517166085059  0.2682502223953594  0.7317502112888513  1.0000
