data_image0
_chemical_formula_structural       Os2TiSe6
_chemical_formula_sum              "Os2 Ti1 Se6"
_cell_length_a       6.469227681942236
_cell_length_b       6.46922785845563
_cell_length_c       6.469228552783716
_cell_angle_alpha    60.00000228039131
_cell_angle_beta     60.000003655940326
_cell_angle_gamma    60.00000766804771

_space_group_name_H-M_alt    "P 1"
_space_group_IT_number       1

loop_
  _space_group_symop_operation_xyz
  'x, y, z'

loop_
  _atom_site_type_symbol
  _atom_site_label
  _atom_site_symmetry_multiplicity
  _atom_site_fract_x
  _atom_site_fract_y
  _atom_site_fract_z
  _atom_site_occupancy
  Os  Os1       1.0  0.25000167389234756  0.25000116596184274  0.24999817414982517  1.0000
  Os  Os2       1.0  0.7499994553443241  0.7500004593226921  0.7500039568842675  1.0000
  Ti  Ti1       1.0  0.9999999374383883  0.99999997349541  3.382311750552826e-07  1.0000
  Se  Se1       1.0  0.26251472783855534  0.2625137526925172  0.7374856308360686  1.0000
  Se  Se2       1.0  0.7374850676790371  0.7374863637229173  0.262512250027478  1.0000
  Se  Se3       1.0  0.7374851006250862  0.2625157501951646  0.2625134287482974  1.0000
  Se  Se4       1.0  0.2625138982617479  0.7374844268022118  0.7374864076550184  1.0000
  Se  Se5       1.0  0.2625154548559271  0.7374848453936447  0.26251355364437107  1.0000
  Se  Se6       1.0  0.737484709542467  0.2625132112360634  0.7374862377135519  1.0000
