data_image0
_chemical_formula_structural       Os2TiS6
_chemical_formula_sum              "Os2 Ti1 S6"
_cell_length_a       5.569034716853376
_cell_length_b       5.569035252798415
_cell_length_c       5.569036011869535
_cell_angle_alpha    60.000019537844196
_cell_angle_beta     60.00001724583476
_cell_angle_gamma    60.00001284667241

_space_group_name_H-M_alt    "P 1"
_space_group_IT_number       1

loop_
  _space_group_symop_operation_xyz
  'x, y, z'

loop_
  _atom_site_type_symbol
  _atom_site_label
  _atom_site_symmetry_multiplicity
  _atom_site_fract_x
  _atom_site_fract_y
  _atom_site_fract_z
  _atom_site_occupancy
  Os  Os1       1.0  0.24999987795973552  0.25000168065218514  0.250004657808272  1.0000
  Os  Os2       1.0  0.7500040220678447  0.7499964430627732  0.7499882499029172  1.0000
  Ti  Ti1       1.0  0.9999996141300566  1.561436194331242e-07  7.271773481350272e-07  1.0000
  S   S1        1.0  0.27081240926013883  0.2708150058585474  0.7291841442160335  1.0000
  S   S2        1.0  0.7291865646324605  0.7291857107198615  0.27081846661683223  1.0000
  S   S3        1.0  0.729184642850738  0.2708128201399595  0.27081545075873287  1.0000
  S   S4        1.0  0.2708147505359941  0.7291871728999932  0.7291859653640635  1.0000
  S   S5        1.0  0.27081079073369474  0.729184630233317  0.27081689963630673  1.0000
  S   S6        1.0  0.729187391083274  0.2708163414526981  0.7291854014834528  1.0000
