data_image0
_chemical_formula_structural       Os2TiO6
_chemical_formula_sum              "Os2 Ti1 O6"
_cell_length_a       4.826022190733369
_cell_length_b       4.826022375160005
_cell_length_c       4.826022195015476
_cell_angle_alpha    59.99999990302444
_cell_angle_beta     59.99999986318425
_cell_angle_gamma    59.9999995756682

_space_group_name_H-M_alt    "P 1"
_space_group_IT_number       1

loop_
  _space_group_symop_operation_xyz
  'x, y, z'

loop_
  _atom_site_type_symbol
  _atom_site_label
  _atom_site_symmetry_multiplicity
  _atom_site_fract_x
  _atom_site_fract_y
  _atom_site_fract_z
  _atom_site_occupancy
  Os  Os1       1.0  0.25000002000645416  0.24999992836541643  0.24999995730404354  1.0000
  Os  Os2       1.0  0.7500000053490129  0.7499998916835783  0.7500000386589286  1.0000
  Ti  Ti1       1.0  0.9999999860545856  2.0302348798312393e-08  9.254131855802933e-09  1.0000
  O   O1        1.0  0.26503676272562376  0.2650368275935852  0.7349632610092325  1.0000
  O   O2        1.0  0.7349632125249588  0.7349632360835934  0.26503681224847714  1.0000
  O   O3        1.0  0.7349632177693042  0.2650368334109538  0.2650367531588363  1.0000
  O   O4        1.0  0.265036818724136  0.7349631972749091  0.7349631878634098  1.0000
  O   O5        1.0  0.26503678311940776  0.7349632625479273  0.26503677850452295  1.0000
  O   O6        1.0  0.7349631962156917  0.2650367960536654  0.7349632061484265  1.0000
