data_image0
_chemical_formula_structural       Os2VO6
_chemical_formula_sum              "Os2 V1 O6"
_cell_length_a       4.731619449933886
_cell_length_b       4.731619423549947
_cell_length_c       4.731619377551586
_cell_angle_alpha    59.9999997880285
_cell_angle_beta     59.99999987290738
_cell_angle_gamma    59.999999552644496

_space_group_name_H-M_alt    "P 1"
_space_group_IT_number       1

loop_
  _space_group_symop_operation_xyz
  'x, y, z'

loop_
  _atom_site_type_symbol
  _atom_site_label
  _atom_site_symmetry_multiplicity
  _atom_site_fract_x
  _atom_site_fract_y
  _atom_site_fract_z
  _atom_site_occupancy
  Os  Os1       1.0  0.24999995471952016  0.25000007343837555  0.24999996284105755  1.0000
  Os  Os2       1.0  0.7499998976854672  0.7500000831285248  0.7500002256676015  1.0000
  V   V1        1.0  6.754436020749811e-09  0.999999987057868  0.9999999798459933  1.0000
  O   O1        1.0  0.2629070094732533  0.26290700888001706  0.7370929869092671  1.0000
  O   O2        1.0  0.7370930467447302  0.7370929535549017  0.26290694103248224  1.0000
  O   O3        1.0  0.737093010330143  0.26290700075617085  0.26290694454287505  1.0000
  O   O4        1.0  0.26290701660313864  0.7370929616787478  0.737093002268108  1.0000
  O   O5        1.0  0.26290699420247154  0.7370929867082432  0.26290698112193733  1.0000
  O   O6        1.0  0.7370930739468007  0.2629069472539848  0.7370929572039545  1.0000
