data_image0
_chemical_formula_structural       Os2VSe6
_chemical_formula_sum              "Os2 V1 Se6"
_cell_length_a       6.1736421382366125
_cell_length_b       6.173642279818075
_cell_length_c       6.173642399574358
_cell_angle_alpha    60.0000009180464
_cell_angle_beta     59.99999993011027
_cell_angle_gamma    59.999999088151114

_space_group_name_H-M_alt    "P 1"
_space_group_IT_number       1

loop_
  _space_group_symop_operation_xyz
  'x, y, z'

loop_
  _atom_site_type_symbol
  _atom_site_label
  _atom_site_symmetry_multiplicity
  _atom_site_fract_x
  _atom_site_fract_y
  _atom_site_fract_z
  _atom_site_occupancy
  Os  Os1       1.0  0.24999768212595594  0.2500016614886085  0.2500003968595337  1.0000
  Os  Os2       1.0  0.750001346104812  0.7499994436321618  0.7500006372245299  1.0000
  V   V1        1.0  5.792312371395739e-08  1.011752624901713e-07  0.9999999852423813  1.0000
  Se  Se1       1.0  0.26860841559265713  0.2686093377310419  0.7313910288471824  1.0000
  Se  Se2       1.0  0.7313921510374768  0.7313901148603842  0.268608379340767  1.0000
  Se  Se3       1.0  0.7313917605077311  0.2686091411861697  0.26860855139695516  1.0000
  Se  Se4       1.0  0.2686081206681561  0.7313909144891972  0.731391505397141  1.0000
  Se  Se5       1.0  0.268608675715599  0.7313908074578162  0.26860897151690993  1.0000
  Se  Se6       1.0  0.7313917782417462  0.2686084725405164  0.7313905517675591  1.0000
