data_image0
_chemical_formula_structural       Os2VS6
_chemical_formula_sum              "Os2 V1 S6"
_cell_length_a       5.534077279307099
_cell_length_b       5.534077125058069
_cell_length_c       5.534076824456568
_cell_angle_alpha    60.00000211333084
_cell_angle_beta     60.000005921694544
_cell_angle_gamma    60.00000493398585

_space_group_name_H-M_alt    "P 1"
_space_group_IT_number       1

loop_
  _space_group_symop_operation_xyz
  'x, y, z'

loop_
  _atom_site_type_symbol
  _atom_site_label
  _atom_site_symmetry_multiplicity
  _atom_site_fract_x
  _atom_site_fract_y
  _atom_site_fract_z
  _atom_site_occupancy
  Os  Os1       1.0  0.2500049917842716  0.24999778731780667  0.2499990051977972  1.0000
  Os  Os2       1.0  0.7499965769220649  0.749998330355046  0.750003761326284  1.0000
  V   V1        1.0  0.9999999593831279  1.9696561515000977e-07  0.9999997899156413  1.0000
  S   S1        1.0  0.2692467071030839  0.2692460095585318  0.7307535667107856  1.0000
  S   S2        1.0  0.7307522581603172  0.7307553332357966  0.2692455272431185  1.0000
  S   S3        1.0  0.7307522560978867  0.26924710240887706  0.2692454896316757  1.0000
  S   S4        1.0  0.2692472953569009  0.7307540279281804  0.7307533939643643  1.0000
  S   S5        1.0  0.2692474823700265  0.7307538791541879  0.26924478343655045  1.0000
  S   S6        1.0  0.7307525029125141  0.26924733306746124  0.7307546464121508  1.0000
