data_image0
_chemical_formula_structural       P2CO6
_chemical_formula_sum              "P2 C1 O6"
_cell_length_a       4.369003703010465
_cell_length_b       4.11460074439639
_cell_length_c       3.8705166125812314
_cell_angle_alpha    33.25305541144828
_cell_angle_beta     44.75924538303862
_cell_angle_gamma    70.99659152567793

_space_group_name_H-M_alt    "P 1"
_space_group_IT_number       1

loop_
  _space_group_symop_operation_xyz
  'x, y, z'

loop_
  _atom_site_type_symbol
  _atom_site_label
  _atom_site_symmetry_multiplicity
  _atom_site_fract_x
  _atom_site_fract_y
  _atom_site_fract_z
  _atom_site_occupancy
  P   P1        1.0  0.42464549299030363  0.14119643146891891  0.6575529438785004  1.0000
  P   P2        1.0  0.42987917879416804  0.9892081636346238  0.7857464765718579  1.0000
  C   C1        1.0  0.3271123819641331  0.21914547577942411  0.4536250836074789  1.0000
  O   O1        1.0  0.5186001849514299  0.6401994958247246  0.38759635772350554  1.0000
  O   O2        1.0  0.40530215266972935  0.05299189506594622  0.7374396673424254  1.0000
  O   O3        1.0  0.40833305296301425  0.49614167612784943  0.02825965367191491  1.0000
  O   O4        1.0  0.39936323664960843  0.01123996551319678  0.77826906554972  1.0000
  O   O5        1.0  0.9913260699684343  0.02083044105330052  0.01558585558464376  1.0000
  O   O6        1.0  0.08149923061967401  0.22412054366648548  0.6246699434702447  1.0000
