data_image0
_chemical_formula_structural       P2CS6
_chemical_formula_sum              "P2 C1 S6"
_cell_length_a       5.506956003830027
_cell_length_b       5.506956019971919
_cell_length_c       5.506955952243883
_cell_angle_alpha    60.00000022660834
_cell_angle_beta     60.000002287777484
_cell_angle_gamma    59.99999942133484

_space_group_name_H-M_alt    "P 1"
_space_group_IT_number       1

loop_
  _space_group_symop_operation_xyz
  'x, y, z'

loop_
  _atom_site_type_symbol
  _atom_site_label
  _atom_site_symmetry_multiplicity
  _atom_site_fract_x
  _atom_site_fract_y
  _atom_site_fract_z
  _atom_site_occupancy
  P   P1        1.0  0.24999998554613936  0.2500000130341779  0.2500000429441252  1.0000
  P   P2        1.0  0.7499999643497696  0.7499999279027287  0.7500001152047341  1.0000
  C   C1        1.0  0.999999966782262  0.99999921270537  1.209245687714438e-06  1.0000
  S   S1        1.0  0.25419107622665077  0.25419126900298045  0.7458087487163082  1.0000
  S   S2        1.0  0.7458090303515319  0.7458090322212968  0.2541908513266672  1.0000
  S   S3        1.0  0.7458090302521992  0.25419105158713096  0.25419087244592053  1.0000
  S   S4        1.0  0.254191183012327  0.7458090428055081  0.7458086396624262  1.0000
  S   S5        1.0  0.2541908729307014  0.7458092454199403  0.2541907590094415  1.0000
  S   S6        1.0  0.745808905484928  0.2541911847961173  0.7458087644780474  1.0000
