data_image0
_chemical_formula_structural       Pb2AgF6
_chemical_formula_sum              "Pb2 Ag1 F6"
_cell_length_a       5.831111568146996
_cell_length_b       5.831111624707204
_cell_length_c       5.831111699998556
_cell_angle_alpha    59.999998972293376
_cell_angle_beta     59.999999418821695
_cell_angle_gamma    60.00000046942147

_space_group_name_H-M_alt    "P 1"
_space_group_IT_number       1

loop_
  _space_group_symop_operation_xyz
  'x, y, z'

loop_
  _atom_site_type_symbol
  _atom_site_label
  _atom_site_symmetry_multiplicity
  _atom_site_fract_x
  _atom_site_fract_y
  _atom_site_fract_z
  _atom_site_occupancy
  Pb  Pb1       1.0  0.2500000061507436  0.24999999285295865  0.2500000116832929  1.0000
  Pb  Pb2       1.0  0.7500000566774151  0.7499999470534375  0.7500000076808617  1.0000
  Ag  Ag1       1.0  0.999999989398675  2.1003623265917365e-09  2.6544686416516567e-08  1.0000
  F   F1        1.0  0.25802147587823937  0.25802153024219887  0.7419784909493639  1.0000
  F   F2        1.0  0.741978512579303  0.7419785020801511  0.258021490238161  1.0000
  F   F3        1.0  0.7419784871914131  0.2580214929803242  0.2580215238265665  1.0000
  F   F4        1.0  0.2580214976660127  0.7419785204387622  0.7419784943367314  1.0000
  F   F5        1.0  0.2580214891318056  0.7419785198380341  0.2580215049058335  1.0000
  F   F6        1.0  0.7419784731227282  0.2580215019825027  0.7419785049237354  1.0000
