data_image0
_chemical_formula_structural       Pb2AuI6
_chemical_formula_sum              "Pb2 Au1 I6"
_cell_length_a       7.792779128980785
_cell_length_b       7.792779199905674
_cell_length_c       7.792779103713639
_cell_angle_alpha    60.00000056366991
_cell_angle_beta     59.99999956579749
_cell_angle_gamma    59.99999987742803

_space_group_name_H-M_alt    "P 1"
_space_group_IT_number       1

loop_
  _space_group_symop_operation_xyz
  'x, y, z'

loop_
  _atom_site_type_symbol
  _atom_site_label
  _atom_site_symmetry_multiplicity
  _atom_site_fract_x
  _atom_site_fract_y
  _atom_site_fract_z
  _atom_site_occupancy
  Pb  Pb1       1.0  0.2499999815601159  0.2500000283373661  0.24999998125107242  1.0000
  Pb  Pb2       1.0  0.7499999771455  0.7500000142882687  0.7499999949635369  1.0000
  Au  Au1       1.0  0.9999999942373177  1.728804718795275e-08  0.9999999698557719  1.0000
  I   I1        1.0  0.2598258130565442  0.25982575942179215  0.7401742112428515  1.0000
  I   I2        1.0  0.7401741892646332  0.7401742234814975  0.2598257909904988  1.0000
  I   I3        1.0  0.7401742019241038  0.25982581874527644  0.259825751433944  1.0000
  I   I4        1.0  0.2598258132090068  0.7401741657296539  0.7401742474573371  1.0000
  I   I5        1.0  0.2598257884657916  0.7401741544711041  0.2598258236274792  1.0000
  I   I6        1.0  0.7401742417545399  0.2598258158590602  0.7401742312551013  1.0000
