data_image0
_chemical_formula_structural       Pb2AgBr6
_chemical_formula_sum              "Pb2 Ag1 Br6"
_cell_length_a       7.236194249701787
_cell_length_b       7.236194314460046
_cell_length_c       7.2361942974563425
_cell_angle_alpha    59.99999997585152
_cell_angle_beta     59.99999943497611
_cell_angle_gamma    59.99999980044897

_space_group_name_H-M_alt    "P 1"
_space_group_IT_number       1

loop_
  _space_group_symop_operation_xyz
  'x, y, z'

loop_
  _atom_site_type_symbol
  _atom_site_label
  _atom_site_symmetry_multiplicity
  _atom_site_fract_x
  _atom_site_fract_y
  _atom_site_fract_z
  _atom_site_occupancy
  Pb  Pb1       1.0  0.25000002583263575  0.24999997906245164  0.24999998444317117  1.0000
  Pb  Pb2       1.0  0.749999997114063  0.7499999964257733  0.7500000786034031  1.0000
  Ag  Ag1       1.0  7.1694403053825e-08  3.385052446151458e-08  0.9999999016234538  1.0000
  Br  Br1       1.0  0.25764278561329934  0.2576427675032196  0.7423572229197806  1.0000
  Br  Br2       1.0  0.7423571437661682  0.7423571775195332  0.257642798497504  1.0000
  Br  Br3       1.0  0.7423571826783127  0.25764286599860553  0.25764281098670583  1.0000
  Br  Br4       1.0  0.25764278598038265  0.7423571670355114  0.7423572297017957  1.0000
  Br  Br5       1.0  0.2576428252220556  0.7423572075809021  0.2576427825081521  1.0000
  Br  Br6       1.0  0.7423571816539478  0.2576428017578476  0.742357190113936  1.0000
