data_image0
_chemical_formula_structural       Pb2AuF6
_chemical_formula_sum              "Pb2 Au1 F6"
_cell_length_a       5.8517289786442594
_cell_length_b       5.851729162571762
_cell_length_c       5.851729020864527
_cell_angle_alpha    60.00000024156732
_cell_angle_beta     60.000000380970995
_cell_angle_gamma    59.99999950596631

_space_group_name_H-M_alt    "P 1"
_space_group_IT_number       1

loop_
  _space_group_symop_operation_xyz
  'x, y, z'

loop_
  _atom_site_type_symbol
  _atom_site_label
  _atom_site_symmetry_multiplicity
  _atom_site_fract_x
  _atom_site_fract_y
  _atom_site_fract_z
  _atom_site_occupancy
  Pb  Pb1       1.0  0.24999996871075614  0.2499999953134602  0.2499999701785443  1.0000
  Pb  Pb2       1.0  0.7500000230130954  0.7499999964051894  0.7499999989546153  1.0000
  Au  Au1       1.0  0.9999999686671757  0.999999987442226  8.346557777266229e-08  1.0000
  F   F1        1.0  0.26159172898821526  0.26159164500201937  0.7384082805070045  1.0000
  F   F2        1.0  0.7384082720239997  0.7384083425307056  0.26159166385927957  1.0000
  F   F3        1.0  0.7384082487936191  0.2615917724524668  0.26159165704848436  1.0000
  F   F4        1.0  0.26159168181713993  0.738408319728375  0.738408347094817  1.0000
  F   F5        1.0  0.2615917333301098  0.7384082568943119  0.26159171274154136  1.0000
  F   F6        1.0  0.7384083578948258  0.26159169087212697  0.7384082918463577  1.0000
