data_image0
_chemical_formula_structural       Pb2BaCl6
_chemical_formula_sum              "Pb2 Ba1 Cl6"
_cell_length_a       7.420140387941934
_cell_length_b       7.420140105061094
_cell_length_c       7.420140406453624
_cell_angle_alpha    59.99999877807424
_cell_angle_beta     59.999999185288026
_cell_angle_gamma    59.99999994736294

_space_group_name_H-M_alt    "P 1"
_space_group_IT_number       1

loop_
  _space_group_symop_operation_xyz
  'x, y, z'

loop_
  _atom_site_type_symbol
  _atom_site_label
  _atom_site_symmetry_multiplicity
  _atom_site_fract_x
  _atom_site_fract_y
  _atom_site_fract_z
  _atom_site_occupancy
  Pb  Pb1       1.0  0.2500000544887064  0.2500000326683079  0.24999994270405934  1.0000
  Pb  Pb2       1.0  0.7500000407040082  0.7499999527549016  0.7499999445983611  1.0000
  Ba  Ba1       1.0  4.901267017748113e-08  0.9999999323266958  0.9999999891150658  1.0000
  Cl  Cl1       1.0  0.2746935029311734  0.274693566856047  0.7253064508401574  1.0000
  Cl  Cl2       1.0  0.7253065201895023  0.7253064713853508  0.274693509430308  1.0000
  Cl  Cl3       1.0  0.725306343318982  0.27469360404935084  0.2746936085416874  1.0000
  Cl  Cl4       1.0  0.27469353781256445  0.7253064539988661  0.7253065017670379  1.0000
  Cl  Cl5       1.0  0.27469354581632044  0.7253064026133432  0.2746935853129889  1.0000
  Cl  Cl6       1.0  0.7253064077648552  0.2746935828098644  0.7253064725237737  1.0000
