data_image0
_chemical_formula_structural       Pb2BaI6
_chemical_formula_sum              "Pb2 Ba1 I6"
_cell_length_a       8.396021301241717
_cell_length_b       8.396021067236559
_cell_length_c       8.39602108572336
_cell_angle_alpha    60.00000027662824
_cell_angle_beta     59.99999926295951
_cell_angle_gamma    59.9999968630128

_space_group_name_H-M_alt    "P 1"
_space_group_IT_number       1

loop_
  _space_group_symop_operation_xyz
  'x, y, z'

loop_
  _atom_site_type_symbol
  _atom_site_label
  _atom_site_symmetry_multiplicity
  _atom_site_fract_x
  _atom_site_fract_y
  _atom_site_fract_z
  _atom_site_occupancy
  Pb  Pb1       1.0  0.24999999446847565  0.25000000066650535  0.2500000176206829  1.0000
  Pb  Pb2       1.0  0.7500000042851297  0.7499999888710295  0.7499999918165029  1.0000
  Ba  Ba1       1.0  1.2113061212701307e-08  3.792673575210734e-08  4.5251482877643184e-08  1.0000
  I   I1        1.0  0.2767389163086291  0.2767389572112588  0.7232610635449954  1.0000
  I   I2        1.0  0.7232610486322687  0.7232610264913948  0.2767389645249447  1.0000
  I   I3        1.0  0.7232611167092382  0.27673885092397976  0.2767389162835535  1.0000
  I   I4        1.0  0.27673894032162466  0.7232610875583322  0.7232610430920401  1.0000
  I   I5        1.0  0.27673889827600834  0.7232611195810644  0.2767389203333613  1.0000
  I   I6        1.0  0.7232610629823023  0.2767389370576185  0.7232610349965667  1.0000
