data_image0
_chemical_formula_structural       Pb2BeCl6
_chemical_formula_sum              "Pb2 Be1 Cl6"
_cell_length_a       6.596721406850702
_cell_length_b       6.596721575863009
_cell_length_c       6.596720720299484
_cell_angle_alpha    60.00000106730136
_cell_angle_beta     60.000002262855865
_cell_angle_gamma    59.99999960348589

_space_group_name_H-M_alt    "P 1"
_space_group_IT_number       1

loop_
  _space_group_symop_operation_xyz
  'x, y, z'

loop_
  _atom_site_type_symbol
  _atom_site_label
  _atom_site_symmetry_multiplicity
  _atom_site_fract_x
  _atom_site_fract_y
  _atom_site_fract_z
  _atom_site_occupancy
  Pb  Pb1       1.0  0.2500001100186813  0.2499999733061898  0.2500000030528293  1.0000
  Pb  Pb2       1.0  0.7499999666914807  0.7500000962952226  0.7500000768820618  1.0000
  Be  Be1       1.0  0.9999999682801549  1.1139579381825369e-08  0.9999999739084199  1.0000
  Cl  Cl1       1.0  0.2424097351371209  0.2424098075678359  0.757590202345129  1.0000
  Cl  Cl2       1.0  0.7575901538205233  0.7575901636339832  0.2424098599799226  1.0000
  Cl  Cl3       1.0  0.7575902533635954  0.2424096961818071  0.24240997922377042  1.0000
  Cl  Cl4       1.0  0.24240986956733312  0.757590213752332  0.757589952787242  1.0000
  Cl  Cl5       1.0  0.24240975207484125  0.757590243274441  0.2424099741375337  1.0000
  Cl  Cl6       1.0  0.7575902035745274  0.24240977991207313  0.7575899970153074  1.0000
