data_image0
_chemical_formula_structural       Pb2BaF6
_chemical_formula_sum              "Pb2 Ba1 F6"
_cell_length_a       6.255011690200187
_cell_length_b       6.255011816626155
_cell_length_c       6.255011829347864
_cell_angle_alpha    59.99999905364185
_cell_angle_beta     59.999998614028726
_cell_angle_gamma    59.99999987874721

_space_group_name_H-M_alt    "P 1"
_space_group_IT_number       1

loop_
  _space_group_symop_operation_xyz
  'x, y, z'

loop_
  _atom_site_type_symbol
  _atom_site_label
  _atom_site_symmetry_multiplicity
  _atom_site_fract_x
  _atom_site_fract_y
  _atom_site_fract_z
  _atom_site_occupancy
  Pb  Pb1       1.0  0.24999989760388228  0.25000003543679633  0.2500000314419819  1.0000
  Pb  Pb2       1.0  0.750000011191348  0.7499999320464603  0.7499999599180572  1.0000
  Ba  Ba1       1.0  1.031158858355434e-08  7.83208666395722e-09  5.316624270972041e-09  1.0000
  F   F1        1.0  0.27133061659164204  0.27133067103629155  0.7286693499571771  1.0000
  F   F2        1.0  0.7286693287500315  0.7286693806418972  0.2713306513757656  1.0000
  F   F3        1.0  0.7286693647156571  0.2713306877484712  0.2713306567404107  1.0000
  F   F4        1.0  0.2713306883682575  0.7286693286853272  0.7286693515089925  1.0000
  F   F5        1.0  0.27133072749540466  0.7286692812108927  0.27133067303169595  1.0000
  F   F6        1.0  0.7286693662398283  0.27133066865016864  0.7286693321912366  1.0000
