data_image0
_chemical_formula_structural       Pb2BeF6
_chemical_formula_sum              "Pb2 Be1 F6"
_cell_length_a       5.461975319163962
_cell_length_b       5.46197548498602
_cell_length_c       5.461975525211363
_cell_angle_alpha    59.99999894390468
_cell_angle_beta     59.99999897907703
_cell_angle_gamma    59.999999631040566

_space_group_name_H-M_alt    "P 1"
_space_group_IT_number       1

loop_
  _space_group_symop_operation_xyz
  'x, y, z'

loop_
  _atom_site_type_symbol
  _atom_site_label
  _atom_site_symmetry_multiplicity
  _atom_site_fract_x
  _atom_site_fract_y
  _atom_site_fract_z
  _atom_site_occupancy
  Pb  Pb1       1.0  0.2499999795303898  0.2500000418472623  0.24999998772788729  1.0000
  Pb  Pb2       1.0  0.7500000366958985  0.749999932703024  0.7499999812572495  1.0000
  Be  Be1       1.0  1.7293512438810013e-09  2.01808016850388e-08  0.9999999011646321  1.0000
  F   F1        1.0  0.22914616209031002  0.2291461682243482  0.7708538328746024  1.0000
  F   F2        1.0  0.7708538377143652  0.7708538175374937  0.22914619180990578  1.0000
  F   F3        1.0  0.7708537961724513  0.22914614970878092  0.22914624185922697  1.0000
  F   F4        1.0  0.2291461765340163  0.7708538158722599  0.7708538302656976  1.0000
  F   F5        1.0  0.22914613454809202  0.7708538302954785  0.2291462207992325  1.0000
  F   F6        1.0  0.770853877299812  0.22914618910103135  0.7708537902005242  1.0000
