data_image0
_chemical_formula_structural       Pb2BeI6
_chemical_formula_sum              "Pb2 Be1 I6"
_cell_length_a       7.658389585923008
_cell_length_b       7.658389453729854
_cell_length_c       7.6583896684443875
_cell_angle_alpha    59.99999992498442
_cell_angle_beta     59.99999986462671
_cell_angle_gamma    60.00000062914759

_space_group_name_H-M_alt    "P 1"
_space_group_IT_number       1

loop_
  _space_group_symop_operation_xyz
  'x, y, z'

loop_
  _atom_site_type_symbol
  _atom_site_label
  _atom_site_symmetry_multiplicity
  _atom_site_fract_x
  _atom_site_fract_y
  _atom_site_fract_z
  _atom_site_occupancy
  Pb  Pb1       1.0  0.24999999814315682  0.2500000291787802  0.2500000217656441  1.0000
  Pb  Pb2       1.0  0.7499999903191135  0.7499999867854862  0.7499999244754227  1.0000
  Be  Be1       1.0  2.688097029505589e-08  0.9999999872062414  7.319727006820888e-09  1.0000
  I   I1        1.0  0.24259702068714672  0.24259702077123854  0.7574029709960453  1.0000
  I   I2        1.0  0.7574029554700535  0.7574029552125314  0.24259708234477165  1.0000
  I   I3        1.0  0.7574029431711334  0.24259704657639136  0.24259704547966301  1.0000
  I   I4        1.0  0.24259703012208664  0.757402974185535  0.7574029686234607  1.0000
  I   I5        1.0  0.24259703297260968  0.7574029712400848  0.24259704331496915  1.0000
  I   I6        1.0  0.7574029940825511  0.24259702393432403  0.7574029449491252  1.0000
