data_image0
_chemical_formula_structural       Pb2BaBr6
_chemical_formula_sum              "Pb2 Ba1 Br6"
_cell_length_a       7.831716812401532
_cell_length_b       7.831716733488037
_cell_length_c       7.831716867949558
_cell_angle_alpha    59.99999995656602
_cell_angle_beta     59.99999960128807
_cell_angle_gamma    60.00000010850382

_space_group_name_H-M_alt    "P 1"
_space_group_IT_number       1

loop_
  _space_group_symop_operation_xyz
  'x, y, z'

loop_
  _atom_site_type_symbol
  _atom_site_label
  _atom_site_symmetry_multiplicity
  _atom_site_fract_x
  _atom_site_fract_y
  _atom_site_fract_z
  _atom_site_occupancy
  Pb  Pb1       1.0  0.2500000490275279  0.24999995675376677  0.25000001771254315  1.0000
  Pb  Pb2       1.0  0.7500000134751339  0.7500000985800155  0.7499999112944146  1.0000
  Ba  Ba1       1.0  2.2563034256132694e-08  0.9999999765425983  9.493476688798397e-08  1.0000
  Br  Br1       1.0  0.2761541145865543  0.27615411463202894  0.723845877466713  1.0000
  Br  Br2       1.0  0.723845840584633  0.7238458734571995  0.27615415925800657  1.0000
  Br  Br3       1.0  0.7238458488021452  0.2761540821658532  0.2761541325298282  1.0000
  Br  Br4       1.0  0.2761541770963628  0.7238458308596878  0.7238458565655642  1.0000
  Br  Br5       1.0  0.2761540781541387  0.7238459264412397  0.2761541057071032  1.0000
  Br  Br6       1.0  0.7238458524276586  0.27615413983932974  0.723845864634005  1.0000
