data_image0
_chemical_formula_structural       Pb2CoCl6
_chemical_formula_sum              "Pb2 Co1 Cl6"
_cell_length_a       6.742617994213569
_cell_length_b       6.742618155567816
_cell_length_c       6.742618169420707
_cell_angle_alpha    59.999996935025386
_cell_angle_beta     59.99999979509131
_cell_angle_gamma    59.99999937168713

_space_group_name_H-M_alt    "P 1"
_space_group_IT_number       1

loop_
  _space_group_symop_operation_xyz
  'x, y, z'

loop_
  _atom_site_type_symbol
  _atom_site_label
  _atom_site_symmetry_multiplicity
  _atom_site_fract_x
  _atom_site_fract_y
  _atom_site_fract_z
  _atom_site_occupancy
  Pb  Pb1       1.0  0.24999996378651337  0.250000018351387  0.2499999919420664  1.0000
  Pb  Pb2       1.0  0.7500000452625799  0.7500000968319038  0.749999748955811  1.0000
  Co  Co1       1.0  4.744953945838274e-08  0.9999999963671514  3.741579127914282e-08  1.0000
  Cl  Cl1       1.0  0.2427835715543068  0.2427834808857838  0.7572165066456429  1.0000
  Cl  Cl2       1.0  0.7572163142631791  0.75721651078071  0.24278358750746762  1.0000
  Cl  Cl3       1.0  0.7572165595528361  0.24278340623648972  0.24278357867447412  1.0000
  Cl  Cl4       1.0  0.24278356513882238  0.7572165418358449  0.7572164178386316  1.0000
  Cl  Cl5       1.0  0.24278355329872783  0.7572165260742036  0.2427835551448773  1.0000
  Cl  Cl6       1.0  0.7572163657842068  0.2427834274473976  0.757216602255196  1.0000
