data_image0
_chemical_formula_structural       Pb2CO6
_chemical_formula_sum              "Pb2 C1 O6"
_cell_length_a       5.150628339880631
_cell_length_b       5.150628413112221
_cell_length_c       5.150628012159295
_cell_angle_alpha    60.000002507546746
_cell_angle_beta     60.00000118302354
_cell_angle_gamma    60.000000919791155

_space_group_name_H-M_alt    "P 1"
_space_group_IT_number       1

loop_
  _space_group_symop_operation_xyz
  'x, y, z'

loop_
  _atom_site_type_symbol
  _atom_site_label
  _atom_site_symmetry_multiplicity
  _atom_site_fract_x
  _atom_site_fract_y
  _atom_site_fract_z
  _atom_site_occupancy
  Pb  Pb1       1.0  0.25000002401066324  0.24999997080055025  0.250000040316565  1.0000
  Pb  Pb2       1.0  0.7499999705808373  0.7499999813594511  0.7499999954660818  1.0000
  C   C1        1.0  0.9999999972221774  0.9999995577189379  0.9999999934311662  1.0000
  O   O1        1.0  0.22179410036839123  0.2217938805413066  0.7782059744619411  1.0000
  O   O2        1.0  0.778206064896043  0.7782062523356862  0.22179386815214472  1.0000
  O   O3        1.0  0.7782059931527557  0.22179393439810857  0.22179407623640737  1.0000
  O   O4        1.0  0.22179371624011218  0.7782063958408679  0.7782061557949222  1.0000
  O   O5        1.0  0.22179392248327187  0.7782061826998694  0.22179389781971492  1.0000
  O   O6        1.0  0.7782062573669415  0.2217938122615235  0.7782060763536705  1.0000
