data_image0
_chemical_formula_structural       Pb2CoS6
_chemical_formula_sum              "Pb2 Co1 S6"
_cell_length_a       6.349869810421593
_cell_length_b       6.349869820417613
_cell_length_c       6.349869778999263
_cell_angle_alpha    59.99999904502881
_cell_angle_beta     59.999999950978385
_cell_angle_gamma    59.99999941608449

_space_group_name_H-M_alt    "P 1"
_space_group_IT_number       1

loop_
  _space_group_symop_operation_xyz
  'x, y, z'

loop_
  _atom_site_type_symbol
  _atom_site_label
  _atom_site_symmetry_multiplicity
  _atom_site_fract_x
  _atom_site_fract_y
  _atom_site_fract_z
  _atom_site_occupancy
  Pb  Pb1       1.0  0.2500000032396505  0.2500000290726535  0.24999998918295455  1.0000
  Pb  Pb2       1.0  0.7500000039704885  0.7500000389986697  0.749999977209551  1.0000
  Co  Co1       1.0  0.9999999894201449  0.9999999826410556  0.9999999840475264  1.0000
  S   S1        1.0  0.24370475406249892  0.24370469157913505  0.7562952653397201  1.0000
  S   S2        1.0  0.7562952975818442  0.7562953031988658  0.24370469343464887  1.0000
  S   S3        1.0  0.7562952460561113  0.24370469983866805  0.24370473800683945  1.0000
  S   S4        1.0  0.24370470577443937  0.7562953161558207  0.7562952947125617  1.0000
  S   S5        1.0  0.24370472755717204  0.7562952704699638  0.24370470665453345  1.0000
  S   S6        1.0  0.7562952578881852  0.24370469923400567  0.7562953166543701  1.0000
