data_image0
_chemical_formula_structural       Pb2CuBr6
_chemical_formula_sum              "Pb2 Cu1 Br6"
_cell_length_a       7.119027943994836
_cell_length_b       7.119027717146463
_cell_length_c       7.11902773909251
_cell_angle_alpha    60.000001801990415
_cell_angle_beta     60.000000664079714
_cell_angle_gamma    60.00000082296977

_space_group_name_H-M_alt    "P 1"
_space_group_IT_number       1

loop_
  _space_group_symop_operation_xyz
  'x, y, z'

loop_
  _atom_site_type_symbol
  _atom_site_label
  _atom_site_symmetry_multiplicity
  _atom_site_fract_x
  _atom_site_fract_y
  _atom_site_fract_z
  _atom_site_occupancy
  Pb  Pb1       1.0  0.24999998721493527  0.24999998611350208  0.24999998695421233  1.0000
  Pb  Pb2       1.0  0.7500000464296892  0.7500000202742669  0.7499999535235671  1.0000
  Cu  Cu1       1.0  0.9999999838784719  0.9999999948388532  3.6179064167971324e-09  1.0000
  Br  Br1       1.0  0.24988024430774525  0.24988023304288212  0.7501197476475676  1.0000
  Br  Br2       1.0  0.7501197658587512  0.7501197853875637  0.24988026737756122  1.0000
  Br  Br3       1.0  0.750119781623249  0.2498802327315362  0.24988024046624943  1.0000
  Br  Br4       1.0  0.24988020096938646  0.7501197856989088  0.7501197588474001  1.0000
  Br  Br5       1.0  0.249880250093973  0.7501197691962153  0.24988023504803844  1.0000
  Br  Br6       1.0  0.7501197438863676  0.24988019074123574  0.7501198018651166  1.0000
