data_image0
_chemical_formula_structural       Pb2CdI6
_chemical_formula_sum              "Pb2 Cd1 I6"
_cell_length_a       7.939536944589779
_cell_length_b       7.939536538765941
_cell_length_c       7.939536874976526
_cell_angle_alpha    60.000000248471274
_cell_angle_beta     59.999997020756794
_cell_angle_gamma    60.00000060259821

_space_group_name_H-M_alt    "P 1"
_space_group_IT_number       1

loop_
  _space_group_symop_operation_xyz
  'x, y, z'

loop_
  _atom_site_type_symbol
  _atom_site_label
  _atom_site_symmetry_multiplicity
  _atom_site_fract_x
  _atom_site_fract_y
  _atom_site_fract_z
  _atom_site_occupancy
  Pb  Pb1       1.0  0.24999997513859154  0.2500000575593011  0.2499999783875774  1.0000
  Pb  Pb2       1.0  0.7499999962287316  0.7499999166079869  0.7500000429054385  1.0000
  Cd  Cd1       1.0  0.9999999860587415  0.9999999938296408  2.7689079452500518e-08  1.0000
  I   I1        1.0  0.2610928393081908  0.2610929604669669  0.7389071013270883  1.0000
  I   I2        1.0  0.7389071618950761  0.7389070507224785  0.2610928814987997  1.0000
  I   I3        1.0  0.7389070778779236  0.2610929690791761  0.261092829422511  1.0000
  I   I4        1.0  0.26109296686815  0.7389070467380402  0.7389071444323188  1.0000
  I   I5        1.0  0.2610929445258414  0.7389070257313479  0.26109292205984314  1.0000
  I   I6        1.0  0.7389070543711085  0.26109297928773817  0.7389070738210181  1.0000
