data_image0
_chemical_formula_structural       Pb2CdF6
_chemical_formula_sum              "Pb2 Cd1 F6"
_cell_length_a       5.877383769824336
_cell_length_b       5.87738357964282
_cell_length_c       5.877383689094778
_cell_angle_alpha    60.00000168710431
_cell_angle_beta     60.00000116566488
_cell_angle_gamma    59.999999594730916

_space_group_name_H-M_alt    "P 1"
_space_group_IT_number       1

loop_
  _space_group_symop_operation_xyz
  'x, y, z'

loop_
  _atom_site_type_symbol
  _atom_site_label
  _atom_site_symmetry_multiplicity
  _atom_site_fract_x
  _atom_site_fract_y
  _atom_site_fract_z
  _atom_site_occupancy
  Pb  Pb1       1.0  0.24999997908665225  0.2499999129460003  0.24999999425072658  1.0000
  Pb  Pb2       1.0  0.7499999729163382  0.7500000326575642  0.7500000204852548  1.0000
  Cd  Cd1       1.0  4.810502270927261e-08  0.9999999499881584  0.9999999465074143  1.0000
  F   F1        1.0  0.25939790958477565  0.25939789110414313  0.7406021108233517  1.0000
  F   F2        1.0  0.7406020980821432  0.7406021232657028  0.2593979369780168  1.0000
  F   F3        1.0  0.7406021447457738  0.25939785342660104  0.2593978667051992  1.0000
  F   F4        1.0  0.25939784486131334  0.7406022151227375  0.7406021324104675  1.0000
  F   F5        1.0  0.25939782463050237  0.7406021475890885  0.25939785314332625  1.0000
  F   F6        1.0  0.7406022156421389  0.259397839691009  0.7406021238425616  1.0000
