data_image0
_chemical_formula_structural       Pb2CuI6
_chemical_formula_sum              "Pb2 Cu1 I6"
_cell_length_a       7.652260975026313
_cell_length_b       7.65226125478948
_cell_length_c       7.652261122847706
_cell_angle_alpha    59.999999873336336
_cell_angle_beta     59.999998727218944
_cell_angle_gamma    60.00000001671871

_space_group_name_H-M_alt    "P 1"
_space_group_IT_number       1

loop_
  _space_group_symop_operation_xyz
  'x, y, z'

loop_
  _atom_site_type_symbol
  _atom_site_label
  _atom_site_symmetry_multiplicity
  _atom_site_fract_x
  _atom_site_fract_y
  _atom_site_fract_z
  _atom_site_occupancy
  Pb  Pb1       1.0  0.2499999535702418  0.25000003744889376  0.25000004752810084  1.0000
  Pb  Pb2       1.0  0.7500001014287994  0.7500001235501855  0.7499998585003143  1.0000
  Cu  Cu1       1.0  0.9999999857942671  6.402002419335582e-09  3.901865275229582e-09  1.0000
  I   I1        1.0  0.25254756639339415  0.25254741223557564  0.7474524973189512  1.0000
  I   I2        1.0  0.7474524593443497  0.7474525422989275  0.2525475226519918  1.0000
  I   I3        1.0  0.7474524819450596  0.25254739583996555  0.2525475800662982  1.0000
  I   I4        1.0  0.25254742557550086  0.7474525330865285  0.7474524974424058  1.0000
  I   I5        1.0  0.2525474201912762  0.7474525406134023  0.25254754746747443  1.0000
  I   I6        1.0  0.7474526006691367  0.25254740591859814  0.7474524462733034  1.0000
