data_image0
_chemical_formula_structural       Pb2CrO6
_chemical_formula_sum              "Pb2 Cr1 O6"
_cell_length_a       5.570190357637566
_cell_length_b       5.570190429329057
_cell_length_c       5.570190563953415
_cell_angle_alpha    59.99999868046935
_cell_angle_beta     59.99999982252091
_cell_angle_gamma    60.000000684995754

_space_group_name_H-M_alt    "P 1"
_space_group_IT_number       1

loop_
  _space_group_symop_operation_xyz
  'x, y, z'

loop_
  _atom_site_type_symbol
  _atom_site_label
  _atom_site_symmetry_multiplicity
  _atom_site_fract_x
  _atom_site_fract_y
  _atom_site_fract_z
  _atom_site_occupancy
  Pb  Pb1       1.0  0.24999993938493734  0.2499999587360219  0.2500000695344431  1.0000
  Pb  Pb2       1.0  0.7500000176010946  0.7499999619592669  0.7500000336897158  1.0000
  Cr  Cr1       1.0  1.122366454569662e-08  0.999999991205006  0.9999999431322727  1.0000
  O   O1        1.0  0.23435892980565545  0.23435898780477535  0.765641007309602  1.0000
  O   O2        1.0  0.7656410283299867  0.7656410538216917  0.23435890920521216  1.0000
  O   O3        1.0  0.7656410591569573  0.23435900401398252  0.23435895877138613  1.0000
  O   O4        1.0  0.23435900520468764  0.7656410112275003  0.7656410847830961  1.0000
  O   O5        1.0  0.2343589326028031  0.7656410318542675  0.2343589946522388  1.0000
  O   O6        1.0  0.7656410926017609  0.2343590075734507  0.765640998939003  1.0000
