data_image0
_chemical_formula_structural       Pb2CrCl6
_chemical_formula_sum              "Pb2 Cr1 Cl6"
_cell_length_a       6.8267453607240265
_cell_length_b       6.826745406658296
_cell_length_c       6.826745047940168
_cell_angle_alpha    60.00000243847489
_cell_angle_beta     60.000001274445125
_cell_angle_gamma    59.999998814516175

_space_group_name_H-M_alt    "P 1"
_space_group_IT_number       1

loop_
  _space_group_symop_operation_xyz
  'x, y, z'

loop_
  _atom_site_type_symbol
  _atom_site_label
  _atom_site_symmetry_multiplicity
  _atom_site_fract_x
  _atom_site_fract_y
  _atom_site_fract_z
  _atom_site_occupancy
  Pb  Pb1       1.0  0.2500001143238459  0.25000002289628553  0.24999989066061604  1.0000
  Pb  Pb2       1.0  0.7499999902323711  0.7499999395180504  0.7500001018995086  1.0000
  Cr  Cr1       1.0  0.9999999976431577  0.999999946178824  0.9999998523097771  1.0000
  Cl  Cl1       1.0  0.2414723485082367  0.2414724571849102  0.7585275147978193  1.0000
  Cl  Cl2       1.0  0.7585276018018584  0.7585275518744468  0.24147236164293226  1.0000
  Cl  Cl3       1.0  0.7585275682072674  0.24147241199388433  0.24147234316208815  1.0000
  Cl  Cl4       1.0  0.24147226682713377  0.7585276993257102  0.7585278224979902  1.0000
  Cl  Cl5       1.0  0.24147243511478844  0.7585276194002403  0.24147235509363685  1.0000
  Cl  Cl6       1.0  0.7585276744131341  0.24147234839621415  0.7585277567998651  1.0000
