data_image0
_chemical_formula_structural       Pb2CdBr6
_chemical_formula_sum              "Pb2 Cd1 Br6"
_cell_length_a       7.325546038597813
_cell_length_b       7.325545910425443
_cell_length_c       7.3255459400596985
_cell_angle_alpha    60.00000078956197
_cell_angle_beta     60.00000025451635
_cell_angle_gamma    59.999999906231444

_space_group_name_H-M_alt    "P 1"
_space_group_IT_number       1

loop_
  _space_group_symop_operation_xyz
  'x, y, z'

loop_
  _atom_site_type_symbol
  _atom_site_label
  _atom_site_symmetry_multiplicity
  _atom_site_fract_x
  _atom_site_fract_y
  _atom_site_fract_z
  _atom_site_occupancy
  Pb  Pb1       1.0  0.2499999898067982  0.24999996719265918  0.2500000119602921  1.0000
  Pb  Pb2       1.0  0.7499999840984565  0.7500000135940739  0.7499999534225944  1.0000
  Cd  Cd1       1.0  6.288656922225085e-09  2.842199388106745e-08  0.9999999116602043  1.0000
  Br  Br1       1.0  0.2599691749103435  0.259969181335699  0.7400308342295212  1.0000
  Br  Br2       1.0  0.7400308044558288  0.7400308161698557  0.2599692183496858  1.0000
  Br  Br3       1.0  0.7400308127155427  0.259969173991948  0.2599692022584225  1.0000
  Br  Br4       1.0  0.2599691786870538  0.7400308536074836  0.7400308388112359  1.0000
  Br  Br5       1.0  0.25996916945772996  0.7400308131273574  0.25996920017015557  1.0000
  Br  Br6       1.0  0.7400308836432646  0.25996914759679196  0.7400308271069127  1.0000
