data_image0
_chemical_formula_structural       Pb2CrS6
_chemical_formula_sum              "Pb2 Cr1 S6"
_cell_length_a       6.343964059947168
_cell_length_b       6.3439641163620415
_cell_length_c       6.343964082115898
_cell_angle_alpha    59.9999999632066
_cell_angle_beta     59.999999989930394
_cell_angle_gamma    60.00000000564656

_space_group_name_H-M_alt    "P 1"
_space_group_IT_number       1

loop_
  _space_group_symop_operation_xyz
  'x, y, z'

loop_
  _atom_site_type_symbol
  _atom_site_label
  _atom_site_symmetry_multiplicity
  _atom_site_fract_x
  _atom_site_fract_y
  _atom_site_fract_z
  _atom_site_occupancy
  Pb  Pb1       1.0  0.2500000140952278  0.24999999187351435  0.2499999934887342  1.0000
  Pb  Pb2       1.0  0.7499999937660456  0.7500000065096175  0.7499999845525798  1.0000
  Cr  Cr1       1.0  0.9999999915427416  0.9999999980694328  1.6228023218038333e-08  1.0000
  S   S1        1.0  0.2519536129270737  0.2519536298066745  0.7480463828193522  1.0000
  S   S2        1.0  0.7480463916061769  0.7480463840209944  0.25195361596082966  1.0000
  S   S3        1.0  0.7480463916864316  0.2519536008701453  0.2519536133947414  1.0000
  S   S4        1.0  0.2519536227204766  0.7480463724156137  0.7480463849565521  1.0000
  S   S5        1.0  0.25195361133546357  0.7480463776857458  0.25195362184084  1.0000
  S   S6        1.0  0.748046370179279  0.2519536342113562  0.7480463862612765  1.0000
