data_image0
_chemical_formula_structural       Pb2CBr6
_chemical_formula_sum              "Pb2 C1 Br6"
_cell_length_a       7.207187517344339
_cell_length_b       7.207187211968792
_cell_length_c       7.207187259472389
_cell_angle_alpha    59.99999941340052
_cell_angle_beta     59.99999930984538
_cell_angle_gamma    59.99999817451793

_space_group_name_H-M_alt    "P 1"
_space_group_IT_number       1

loop_
  _space_group_symop_operation_xyz
  'x, y, z'

loop_
  _atom_site_type_symbol
  _atom_site_label
  _atom_site_symmetry_multiplicity
  _atom_site_fract_x
  _atom_site_fract_y
  _atom_site_fract_z
  _atom_site_occupancy
  Pb  Pb1       1.0  0.24999998051312844  0.2500000284980857  0.24999998990693142  1.0000
  Pb  Pb2       1.0  0.7499999991058384  0.7499999512465353  0.7499999914113822  1.0000
  C   C1        1.0  0.9999999158134457  4.5882133345138854e-08  1.6377203856006805e-08  1.0000
  Br  Br1       1.0  0.24775680345003012  0.24775696295820043  0.7522431209955664  1.0000
  Br  Br2       1.0  0.7522431245751795  0.752243089857966  0.24775690369650344  1.0000
  Br  Br3       1.0  0.7522431833678802  0.2477569241425909  0.24775689971778447  1.0000
  Br  Br4       1.0  0.24775692518401615  0.7522430437066616  0.7522430896819312  1.0000
  Br  Br5       1.0  0.24775691419163445  0.7522430235497948  0.24775697369097002  1.0000
  Br  Br6       1.0  0.7522431631752415  0.24775692730607538  0.7522430106603668  1.0000
