data_image0
_chemical_formula_structural       Pb2CrBr6
_chemical_formula_sum              "Pb2 Cr1 Br6"
_cell_length_a       7.244261939254294
_cell_length_b       7.244261909663812
_cell_length_c       7.244261969116853
_cell_angle_alpha    59.99999918068281
_cell_angle_beta     60.00000008871668
_cell_angle_gamma    59.99999903209933

_space_group_name_H-M_alt    "P 1"
_space_group_IT_number       1

loop_
  _space_group_symop_operation_xyz
  'x, y, z'

loop_
  _atom_site_type_symbol
  _atom_site_label
  _atom_site_symmetry_multiplicity
  _atom_site_fract_x
  _atom_site_fract_y
  _atom_site_fract_z
  _atom_site_occupancy
  Pb  Pb1       1.0  0.25000008971853266  0.2500000114924935  0.24999994677503168  1.0000
  Pb  Pb2       1.0  0.7500000072171108  0.7499999786863174  0.7499999163657478  1.0000
  Cr  Cr1       1.0  2.1511480726349437e-08  0.9999999306837034  7.9118522969919e-08  1.0000
  Br  Br1       1.0  0.24251004367628684  0.2425101049513923  0.7574899045104908  1.0000
  Br  Br2       1.0  0.7574899577990298  0.7574899038244736  0.24251008678811092  1.0000
  Br  Br3       1.0  0.7574898314224132  0.2425101579191386  0.24251016509315387  1.0000
  Br  Br4       1.0  0.24251007710365405  0.7574899049572512  0.7574899063675363  1.0000
  Br  Br5       1.0  0.24251006854115184  0.757489898449627  0.2425101235658894  1.0000
  Br  Br6       1.0  0.7574899048065769  0.24251010863559788  0.7574898674573952  1.0000
