data_image0
_chemical_formula_structural       Pb2CI6
_chemical_formula_sum              "Pb2 C1 I6"
_cell_length_a       7.632819823402225
_cell_length_b       7.632819511231856
_cell_length_c       7.632819750612316
_cell_angle_alpha    59.99999961985052
_cell_angle_beta     60.00000020616841
_cell_angle_gamma    59.999998346426246

_space_group_name_H-M_alt    "P 1"
_space_group_IT_number       1

loop_
  _space_group_symop_operation_xyz
  'x, y, z'

loop_
  _atom_site_type_symbol
  _atom_site_label
  _atom_site_symmetry_multiplicity
  _atom_site_fract_x
  _atom_site_fract_y
  _atom_site_fract_z
  _atom_site_occupancy
  Pb  Pb1       1.0  0.24999987832395174  0.25000006923400586  0.25000001608016925  1.0000
  Pb  Pb2       1.0  0.7499998904716447  0.7500000311985133  0.7500000519767142  1.0000
  C   C1        1.0  1.708400058251919e-08  3.209154416934435e-09  0.9999999885432906  1.0000
  I   I1        1.0  0.24946370403884008  0.2494636196584553  0.7505363469650791  1.0000
  I   I2        1.0  0.7505363650902382  0.7505363331529501  0.24946363818496034  1.0000
  I   I3        1.0  0.7505363615347123  0.24946364350931652  0.24946369918113434  1.0000
  I   I4        1.0  0.2494637069677393  0.7505363157203981  0.750536315826359  1.0000
  I   I5        1.0  0.2494637105897296  0.7505363518942484  0.24946364323109413  1.0000
  I   I6        1.0  0.7505363671573709  0.24946362498581617  0.750536301993232  1.0000
