data_image0
_chemical_formula_structural       Pb2CF6
_chemical_formula_sum              "Pb2 C1 F6"
_cell_length_a       5.577243456010117
_cell_length_b       5.577243342232237
_cell_length_c       5.577243780861756
_cell_angle_alpha    59.999994309505844
_cell_angle_beta     59.99999509653428
_cell_angle_gamma    59.999999537621086

_space_group_name_H-M_alt    "P 1"
_space_group_IT_number       1

loop_
  _space_group_symop_operation_xyz
  'x, y, z'

loop_
  _atom_site_type_symbol
  _atom_site_label
  _atom_site_symmetry_multiplicity
  _atom_site_fract_x
  _atom_site_fract_y
  _atom_site_fract_z
  _atom_site_occupancy
  Pb  Pb1       1.0  0.24999997866889015  0.24999999245608878  0.250000013658063  1.0000
  Pb  Pb2       1.0  0.7499999626273209  0.7500000652069968  0.7499999980884987  1.0000
  C   C1        1.0  0.9999999712227815  6.148710691686475e-08  1.0556907817930874e-07  1.0000
  F   F1        1.0  0.23042934535355775  0.23042892882147623  0.7695708252999154  1.0000
  F   F2        1.0  0.7695706640786095  0.7695710300230406  0.2304292197179568  1.0000
  F   F3        1.0  0.7695708667491432  0.23042894147776066  0.2304291686520807  1.0000
  F   F4        1.0  0.23042941612383716  0.7695707560465496  0.7695706927984546  1.0000
  F   F5        1.0  0.23042917589342846  0.7695710345731481  0.23042911948013825  1.0000
  F   F6        1.0  0.7695707105035812  0.23042918778755211  0.7695709126732285  1.0000
