data_image0
_chemical_formula_structural       Pb2CoBr6
_chemical_formula_sum              "Pb2 Co1 Br6"
_cell_length_a       7.15763576798509
_cell_length_b       7.1576356697029
_cell_length_c       7.157635754335891
_cell_angle_alpha    59.99999990899017
_cell_angle_beta     59.9999995237137
_cell_angle_gamma    60.000000788508366

_space_group_name_H-M_alt    "P 1"
_space_group_IT_number       1

loop_
  _space_group_symop_operation_xyz
  'x, y, z'

loop_
  _atom_site_type_symbol
  _atom_site_label
  _atom_site_symmetry_multiplicity
  _atom_site_fract_x
  _atom_site_fract_y
  _atom_site_fract_z
  _atom_site_occupancy
  Pb  Pb1       1.0  0.2500000435625676  0.2499999090839503  0.25000004457704145  1.0000
  Pb  Pb2       1.0  0.7500000284129925  0.7500000147170783  0.7499999167931327  1.0000
  Co  Co1       1.0  1.2433435663019912e-08  0.999999996577795  0.999999985714619  1.0000
  Br  Br1       1.0  0.24578716279274732  0.24578713961325024  0.7542128365699631  1.0000
  Br  Br2       1.0  0.7542128169818761  0.7542128817206231  0.24578717382730442  1.0000
  Br  Br3       1.0  0.7542128099054797  0.24578715849248556  0.24578718703999936  1.0000
  Br  Br4       1.0  0.2457871527749085  0.754212885085721  0.7542128431359693  1.0000
  Br  Br5       1.0  0.24578715885636243  0.7542128412531773  0.24578715764460463  1.0000
  Br  Br6       1.0  0.7542128161763918  0.24578717494738825  0.7542128534989231  1.0000
