data_image0
_chemical_formula_structural       Pb2CoI6
_chemical_formula_sum              "Pb2 Co1 I6"
_cell_length_a       7.674683083056304
_cell_length_b       7.674682950100552
_cell_length_c       7.674682999849359
_cell_angle_alpha    60.00000018773793
_cell_angle_beta     60.00000023875126
_cell_angle_gamma    59.999999676210116

_space_group_name_H-M_alt    "P 1"
_space_group_IT_number       1

loop_
  _space_group_symop_operation_xyz
  'x, y, z'

loop_
  _atom_site_type_symbol
  _atom_site_label
  _atom_site_symmetry_multiplicity
  _atom_site_fract_x
  _atom_site_fract_y
  _atom_site_fract_z
  _atom_site_occupancy
  Pb  Pb1       1.0  0.2500000129910113  0.24999997719477116  0.24999999502636358  1.0000
  Pb  Pb2       1.0  0.7500000422089729  0.7499999986089517  0.7500000020682189  1.0000
  Co  Co1       1.0  0.999999985577629  0.9999999936167011  3.887907865593658e-09  1.0000
  I   I1        1.0  0.24649832351294093  0.2464983556907455  0.7535016661555808  1.0000
  I   I2        1.0  0.7535016518228873  0.753501679158492  0.2464983178945852  1.0000
  I   I3        1.0  0.7535016674880325  0.24649834067123144  0.24649831782142823  1.0000
  I   I4        1.0  0.24649833892723014  0.7535016686448106  0.7535016843033849  1.0000
  I   I5        1.0  0.24649831312221512  0.7535016756786009  0.24649832950100725  1.0000
  I   I6        1.0  0.7535016591445489  0.24649830970007042  0.7535016886368863  1.0000
