data_image0
_chemical_formula_structural       Pb2CoTe6
_chemical_formula_sum              "Pb2 Co1 Te6"
_cell_length_a       7.153757479703026
_cell_length_b       7.153757226170632
_cell_length_c       7.153757259114795
_cell_angle_alpha    59.99999934733231
_cell_angle_beta     59.99999961262004
_cell_angle_gamma    60.00000116406354

_space_group_name_H-M_alt    "P 1"
_space_group_IT_number       1

loop_
  _space_group_symop_operation_xyz
  'x, y, z'

loop_
  _atom_site_type_symbol
  _atom_site_label
  _atom_site_symmetry_multiplicity
  _atom_site_fract_x
  _atom_site_fract_y
  _atom_site_fract_z
  _atom_site_occupancy
  Pb  Pb1       1.0  0.25000003517476277  0.2499999401077623  0.2499999948375145  1.0000
  Pb  Pb2       1.0  0.7499999875761163  0.7500000240548834  0.749999979363236  1.0000
  Co  Co1       1.0  2.4505501405881007e-08  0.9999999845917283  0.9999999451281789  1.0000
  Te  Te1       1.0  0.24461988209089214  0.24461993610882024  0.7553801000778295  1.0000
  Te  Te2       1.0  0.7553801421593921  0.7553800622944306  0.24461992055479023  1.0000
  Te  Te3       1.0  0.755380024946086  0.24461986470708116  0.24462000982991985  1.0000
  Te  Te4       1.0  0.2446198252564441  0.7553801473924072  0.7553800951720605  1.0000
  Te  Te5       1.0  0.24461997467796393  0.7553801373008572  0.24461988259832107  1.0000
  Te  Te6       1.0  0.7553800975873971  0.24461991075127193  0.7553800738257853  1.0000
