data_image0
_chemical_formula_structural       Pb2CS6
_chemical_formula_sum              "Pb2 C1 S6"
_cell_length_a       6.26661586126918
_cell_length_b       6.266609979521162
_cell_length_c       6.266612774347844
_cell_angle_alpha    59.999967742552975
_cell_angle_beta     59.99997038229325
_cell_angle_gamma    59.99995470714056

_space_group_name_H-M_alt    "P 1"
_space_group_IT_number       1

loop_
  _space_group_symop_operation_xyz
  'x, y, z'

loop_
  _atom_site_type_symbol
  _atom_site_label
  _atom_site_symmetry_multiplicity
  _atom_site_fract_x
  _atom_site_fract_y
  _atom_site_fract_z
  _atom_site_occupancy
  Pb  Pb1       1.0  0.25000084183777166  0.249999878162573  0.25000169724652965  1.0000
  Pb  Pb2       1.0  0.7500011426082719  0.7500001348140073  0.7500024372580759  1.0000
  C   C1        1.0  0.9999819113013673  0.9999949576540476  0.9999721885948561  1.0000
  S   S1        1.0  0.22300527300495718  0.22300767142696432  0.7769893590042245  1.0000
  S   S2        1.0  0.7770076024653823  0.7770093584986143  0.22298699745264886  1.0000
  S   S3        1.0  0.7769879196494973  0.22300991227563174  0.22300808938031735  1.0000
  S   S4        1.0  0.22298353462700965  0.7770129300352216  0.7770113451160429  1.0000
  S   S5        1.0  0.2230138052284988  0.7769837158161863  0.22301306486119415  1.0000
  S   S6        1.0  0.7770178427924497  0.22298109257263668  0.7770153190523212  1.0000
