data_image0
_chemical_formula_structural       Pb2CrF6
_chemical_formula_sum              "Pb2 Cr1 F6"
_cell_length_a       5.781356441610454
_cell_length_b       5.7813563605208556
_cell_length_c       5.78135640501536
_cell_angle_alpha    59.99999812479802
_cell_angle_beta     59.99999888367391
_cell_angle_gamma    59.999998140260196

_space_group_name_H-M_alt    "P 1"
_space_group_IT_number       1

loop_
  _space_group_symop_operation_xyz
  'x, y, z'

loop_
  _atom_site_type_symbol
  _atom_site_label
  _atom_site_symmetry_multiplicity
  _atom_site_fract_x
  _atom_site_fract_y
  _atom_site_fract_z
  _atom_site_occupancy
  Pb  Pb1       1.0  0.24999999078367552  0.2500000156955534  0.2500000270835697  1.0000
  Pb  Pb2       1.0  0.7499999880074001  0.7499999941256938  0.7500000220666008  1.0000
  Cr  Cr1       1.0  2.114281271766763e-08  8.4737553143136e-09  0.9999999350304767  1.0000
  F   F1        1.0  0.2388980774390219  0.23889815740463055  0.7611018729317579  1.0000
  F   F2        1.0  0.761101856947991  0.7611018418244244  0.23889813971771834  1.0000
  F   F3        1.0  0.7611018775885662  0.2388981409618368  0.23889810385479923  1.0000
  F   F4        1.0  0.2388980968236895  0.7611019239388169  0.761101871513536  1.0000
  F   F5        1.0  0.23889818612818361  0.7611018207577557  0.2388981292795739  1.0000
  F   F6        1.0  0.7611019073769063  0.23889810856282095  0.761101878548154  1.0000
