data_image0
_chemical_formula_structural       Pb2CaBr6
_chemical_formula_sum              "Pb2 Ca1 Br6"
_cell_length_a       7.442845718873082
_cell_length_b       7.4428456564978305
_cell_length_c       7.442845666071107
_cell_angle_alpha    60.000000218310575
_cell_angle_beta     59.99999993883999
_cell_angle_gamma    60.000000061171846

_space_group_name_H-M_alt    "P 1"
_space_group_IT_number       1

loop_
  _space_group_symop_operation_xyz
  'x, y, z'

loop_
  _atom_site_type_symbol
  _atom_site_label
  _atom_site_symmetry_multiplicity
  _atom_site_fract_x
  _atom_site_fract_y
  _atom_site_fract_z
  _atom_site_occupancy
  Pb  Pb1       1.0  0.24999999627311453  0.2499999989351097  0.24999999654766203  1.0000
  Pb  Pb2       1.0  0.7500000036129943  0.7499999803499985  0.7500000294374177  1.0000
  Ca  Ca1       1.0  3.1028468426420532e-09  5.829779443539563e-17  1.1884297836110774e-08  1.0000
  Br  Br1       1.0  0.26176293604604967  0.2617629674579723  0.7382370460195216  1.0000
  Br  Br2       1.0  0.7382370539668607  0.7382370414467312  0.2617629405337731  1.0000
  Br  Br3       1.0  0.7382370542940506  0.2617629555130003  0.26176294383016646  1.0000
  Br  Br4       1.0  0.2617629570784963  0.7382370451640379  0.7382370388442867  1.0000
  Br  Br5       1.0  0.2617629553065396  0.7382370547411087  0.2617629470580806  1.0000
  Br  Br6       1.0  0.738237045017824  0.26176295580912773  0.7382370415781536  1.0000
