data_image0
_chemical_formula_structural       Pb2CuF6
_chemical_formula_sum              "Pb2 Cu1 F6"
_cell_length_a       5.664173612108684
_cell_length_b       5.664173658454931
_cell_length_c       5.66417355666239
_cell_angle_alpha    60.00000090873635
_cell_angle_beta     60.000000737381825
_cell_angle_gamma    59.99999997536314

_space_group_name_H-M_alt    "P 1"
_space_group_IT_number       1

loop_
  _space_group_symop_operation_xyz
  'x, y, z'

loop_
  _atom_site_type_symbol
  _atom_site_label
  _atom_site_symmetry_multiplicity
  _atom_site_fract_x
  _atom_site_fract_y
  _atom_site_fract_z
  _atom_site_occupancy
  Pb  Pb1       1.0  0.2500000246558057  0.2500000172300855  0.25000000014710594  1.0000
  Pb  Pb2       1.0  0.7499999779481524  0.7499999911468167  0.7499999992759514  1.0000
  Cu  Cu1       1.0  0.9999999438447413  5.838117544363681e-08  5.8913450818426663e-08  1.0000
  F   F1        1.0  0.24576058999531758  0.24576060222306537  0.75423941465927  1.0000
  F   F2        1.0  0.7542394116617784  0.7542393845311796  0.24576059957951232  1.0000
  F   F3        1.0  0.7542393686767793  0.24576063206131493  0.24576057430298712  1.0000
  F   F4        1.0  0.2457606815782534  0.754239300636286  0.7542393102539521  1.0000
  F   F5        1.0  0.24576063227075168  0.7542393688120048  0.24576062141703506  1.0000
  F   F6        1.0  0.7542393932524958  0.24576061361770846  0.7542394024712462  1.0000
