data_image0
_chemical_formula_structural       Pb2CrTe6
_chemical_formula_sum              "Pb2 Cr1 Te6"
_cell_length_a       7.23252969979323
_cell_length_b       7.232529708951085
_cell_length_c       7.23252967459898
_cell_angle_alpha    60.00000033265131
_cell_angle_beta     59.99999980693005
_cell_angle_gamma    60.00000024057551

_space_group_name_H-M_alt    "P 1"
_space_group_IT_number       1

loop_
  _space_group_symop_operation_xyz
  'x, y, z'

loop_
  _atom_site_type_symbol
  _atom_site_label
  _atom_site_symmetry_multiplicity
  _atom_site_fract_x
  _atom_site_fract_y
  _atom_site_fract_z
  _atom_site_occupancy
  Pb  Pb1       1.0  0.24999993853052974  0.2499999694183274  0.2500000834794438  1.0000
  Pb  Pb2       1.0  0.7500000399286175  0.749999948896193  0.7499999644759384  1.0000
  Cr  Cr1       1.0  1.970629603382077e-08  2.7094140856043213e-08  0.9999999765997816  1.0000
  Te  Te1       1.0  0.2580672209925745  0.25806728530546413  0.7419327293644584  1.0000
  Te  Te2       1.0  0.7419327529176506  0.7419327041311761  0.25806728392168304  1.0000
  Te  Te3       1.0  0.7419327413272476  0.25806725453019125  0.2580672602297781  1.0000
  Te  Te4       1.0  0.2580672644804967  0.7419327924814983  0.7419326944936581  1.0000
  Te  Te5       1.0  0.2580672296117226  0.7419327435402121  0.2580673023873109  1.0000
  Te  Te6       1.0  0.741932790678322  0.25806726960380144  0.7419327062733602  1.0000
