data_image0
_chemical_formula_structural       Pb2CCl6
_chemical_formula_sum              "Pb2 C1 Cl6"
_cell_length_a       6.757388703854519
_cell_length_b       6.757388552246014
_cell_length_c       6.757388376195201
_cell_angle_alpha    60.00000053705592
_cell_angle_beta     60.00000085133253
_cell_angle_gamma    59.999999901353185

_space_group_name_H-M_alt    "P 1"
_space_group_IT_number       1

loop_
  _space_group_symop_operation_xyz
  'x, y, z'

loop_
  _atom_site_type_symbol
  _atom_site_label
  _atom_site_symmetry_multiplicity
  _atom_site_fract_x
  _atom_site_fract_y
  _atom_site_fract_z
  _atom_site_occupancy
  Pb  Pb1       1.0  0.2500000155429436  0.25000000742627887  0.24999999268066733  1.0000
  Pb  Pb2       1.0  0.7499999805218136  0.7499999642803428  0.750000106688533  1.0000
  C   C1        1.0  5.644670809486147e-09  0.999999972813206  6.331476632333326e-09  1.0000
  Cl  Cl1       1.0  0.24953128436124403  0.24953138642798894  0.7504686572171142  1.0000
  Cl  Cl2       1.0  0.7504685930531475  0.7504686541518445  0.24953126725933902  1.0000
  Cl  Cl3       1.0  0.7504687010969467  0.24953133873046293  0.24953137965141906  1.0000
  Cl  Cl4       1.0  0.24953134179535075  0.7504686565380468  0.7504686549258337  1.0000
  Cl  Cl5       1.0  0.24953135791689415  0.7504686605825115  0.24953135789855493  1.0000
  Cl  Cl6       1.0  0.7504687290931569  0.2495313509980747  0.7504685843095926  1.0000
