data_image0
_chemical_formula_structural       Pb2FeTe6
_chemical_formula_sum              "Pb2 Fe1 Te6"
_cell_length_a       7.265139064204479
_cell_length_b       7.265139080758977
_cell_length_c       7.265139120953765
_cell_angle_alpha    59.99999969369171
_cell_angle_beta     59.999999682413126
_cell_angle_gamma    60.00000024362018

_space_group_name_H-M_alt    "P 1"
_space_group_IT_number       1

loop_
  _space_group_symop_operation_xyz
  'x, y, z'

loop_
  _atom_site_type_symbol
  _atom_site_label
  _atom_site_symmetry_multiplicity
  _atom_site_fract_x
  _atom_site_fract_y
  _atom_site_fract_z
  _atom_site_occupancy
  Pb  Pb1       1.0  0.24999999053893618  0.25000000175634624  0.2500000048183668  1.0000
  Pb  Pb2       1.0  0.7500000110618626  0.750000020441087  0.7499999761350602  1.0000
  Fe  Fe1       1.0  3.082331593473835e-09  5.057349325929189e-09  2.8123402010291635e-09  1.0000
  Te  Te1       1.0  0.23417213678293122  0.2341721346204323  0.7658278624676432  1.0000
  Te  Te2       1.0  0.7658278832485287  0.7658278656618206  0.23417212986309652  1.0000
  Te  Te3       1.0  0.7658278558646846  0.23417212561525158  0.23417216441422622  1.0000
  Te  Te4       1.0  0.23417214014992024  0.7658278561233871  0.7658278560789288  1.0000
  Te  Te5       1.0  0.23417212585823857  0.7658278618048969  0.23417214592428592  1.0000
  Te  Te6       1.0  0.7658278523840446  0.23417213510578963  0.7658278565989003  1.0000
