data_image0
_chemical_formula_structural       Pb2FeI6
_chemical_formula_sum              "Pb2 Fe1 I6"
_cell_length_a       7.712593177577695
_cell_length_b       7.7125935765482785
_cell_length_c       7.712593205821215
_cell_angle_alpha    60.00000001437665
_cell_angle_beta     60.00000353798543
_cell_angle_gamma    59.99999742645502

_space_group_name_H-M_alt    "P 1"
_space_group_IT_number       1

loop_
  _space_group_symop_operation_xyz
  'x, y, z'

loop_
  _atom_site_type_symbol
  _atom_site_label
  _atom_site_symmetry_multiplicity
  _atom_site_fract_x
  _atom_site_fract_y
  _atom_site_fract_z
  _atom_site_occupancy
  Pb  Pb1       1.0  0.2500000963235622  0.24999997261766937  0.24999999372341825  1.0000
  Pb  Pb2       1.0  0.7499999091143396  0.749999948024658  0.7500001106322656  1.0000
  Fe  Fe1       1.0  4.095271002444458e-08  0.9999999984120201  0.9999998973364671  1.0000
  I   I1        1.0  0.23006382743706  0.2300637856200018  0.7699362118981465  1.0000
  I   I2        1.0  0.7699362763283063  0.7699362128333709  0.23006376808402276  1.0000
  I   I3        1.0  0.7699362996605079  0.23006368060755475  0.23006379033791477  1.0000
  I   I4        1.0  0.23006373729304005  0.7699362622665002  0.7699362651022097  1.0000
  I   I5        1.0  0.23006355523722158  0.7699363444819192  0.23006373016245152  1.0000
  I   I6        1.0  0.7699362615243552  0.23006378736183916  0.7699362293828529  1.0000
