data_image0
_chemical_formula_structural       Pb2FeBr6
_chemical_formula_sum              "Pb2 Fe1 Br6"
_cell_length_a       7.198918483155447
_cell_length_b       7.198918501602727
_cell_length_c       7.198918549617589
_cell_angle_alpha    59.99999702845381
_cell_angle_beta     59.99999944440325
_cell_angle_gamma    59.99999754871059

_space_group_name_H-M_alt    "P 1"
_space_group_IT_number       1

loop_
  _space_group_symop_operation_xyz
  'x, y, z'

loop_
  _atom_site_type_symbol
  _atom_site_label
  _atom_site_symmetry_multiplicity
  _atom_site_fract_x
  _atom_site_fract_y
  _atom_site_fract_z
  _atom_site_occupancy
  Pb  Pb1       1.0  0.2500001365242531  0.24999993079669283  0.24999992527388026  1.0000
  Pb  Pb2       1.0  0.7499998321161857  0.7499999897397438  0.7499999172566783  1.0000
  Fe  Fe1       1.0  4.671035686022844e-08  0.9999999897922562  5.8149057882941964e-08  1.0000
  Br  Br1       1.0  0.22660939773394537  0.22660934206331787  0.7733906389057642  1.0000
  Br  Br2       1.0  0.7733907685671064  0.7733907554072864  0.22660921913564  1.0000
  Br  Br3       1.0  0.7733904048023711  0.2266095896428816  0.2266095080112758  1.0000
  Br  Br4       1.0  0.22660946732049972  0.7733904857109495  0.7733906443091645  1.0000
  Br  Br5       1.0  0.22660923374993988  0.7733906179331325  0.22660932457750044  1.0000
  Br  Br6       1.0  0.7733907077199401  0.22660929749942746  0.7733907535676864  1.0000
