data_image0
_chemical_formula_structural       Pb2FeSe6
_chemical_formula_sum              "Pb2 Fe1 Se6"
_cell_length_a       6.78871330925591
_cell_length_b       6.788713481184484
_cell_length_c       6.788713555751004
_cell_angle_alpha    60.00000020447926
_cell_angle_beta     60.000000476369735
_cell_angle_gamma    60.000000319055516

_space_group_name_H-M_alt    "P 1"
_space_group_IT_number       1

loop_
  _space_group_symop_operation_xyz
  'x, y, z'

loop_
  _atom_site_type_symbol
  _atom_site_label
  _atom_site_symmetry_multiplicity
  _atom_site_fract_x
  _atom_site_fract_y
  _atom_site_fract_z
  _atom_site_occupancy
  Pb  Pb1       1.0  0.2500000554195696  0.25000000613132367  0.24999998703701684  1.0000
  Pb  Pb2       1.0  0.7499999651560598  0.7500000093735226  0.7500000293467683  1.0000
  Fe  Fe1       1.0  0.99999998608317  1.623680814145867e-08  2.2408540983268027e-08  1.0000
  Se  Se1       1.0  0.23951952733911894  0.23951952183939237  0.7604804476942837  1.0000
  Se  Se2       1.0  0.7604804787006136  0.7604805423758781  0.23951950593821042  1.0000
  Se  Se3       1.0  0.760480486171829  0.23951945340024394  0.23951951519429932  1.0000
  Se  Se4       1.0  0.2395194888064045  0.7604805151982681  0.7604804693705939  1.0000
  Se  Se5       1.0  0.23951947244148555  0.7604804664366787  0.23951950822629164  1.0000
  Se  Se6       1.0  0.7604805304735871  0.2395194642759476  0.7604805181389535  1.0000
