data_image0
_chemical_formula_structural       Pb2GeBr6
_chemical_formula_sum              "Pb2 Ge1 Br6"
_cell_length_a       7.352743707434575
_cell_length_b       7.352743682293062
_cell_length_c       7.352743722610383
_cell_angle_alpha    60.0000002838818
_cell_angle_beta     59.99999985102246
_cell_angle_gamma    59.999999945273196

_space_group_name_H-M_alt    "P 1"
_space_group_IT_number       1

loop_
  _space_group_symop_operation_xyz
  'x, y, z'

loop_
  _atom_site_type_symbol
  _atom_site_label
  _atom_site_symmetry_multiplicity
  _atom_site_fract_x
  _atom_site_fract_y
  _atom_site_fract_z
  _atom_site_occupancy
  Pb  Pb1       1.0  0.24999999231743983  0.2500000086137252  0.250000010963787  1.0000
  Pb  Pb2       1.0  0.7499999938623968  0.7500000175126864  0.7499999891595077  1.0000
  Ge  Ge1       1.0  0.9999999643563114  0.9999999750145334  0.9999999827132993  1.0000
  Br  Br1       1.0  0.2505938839747435  0.2505938476454071  0.7494061223228884  1.0000
  Br  Br2       1.0  0.7494061713042289  0.7494061784810045  0.25059382421032683  1.0000
  Br  Br3       1.0  0.7494061074400283  0.250593860593279  0.25059388560877227  1.0000
  Br  Br4       1.0  0.25059384482439084  0.7494061871872039  0.7494061464858892  1.0000
  Br  Br5       1.0  0.2505938826914541  0.7494061077820593  0.25059386964666913  1.0000
  Br  Br6       1.0  0.7494061619292961  0.25059381840248685  0.7494061661875028  1.0000
