data_image0
_chemical_formula_structural       Pb2GeS6
_chemical_formula_sum              "Pb2 Ge1 S6"
_cell_length_a       6.569392803502649
_cell_length_b       6.569392759957517
_cell_length_c       6.569392829209578
_cell_angle_alpha    59.999998604155245
_cell_angle_beta     60.00000050673621
_cell_angle_gamma    59.999999753063115

_space_group_name_H-M_alt    "P 1"
_space_group_IT_number       1

loop_
  _space_group_symop_operation_xyz
  'x, y, z'

loop_
  _atom_site_type_symbol
  _atom_site_label
  _atom_site_symmetry_multiplicity
  _atom_site_fract_x
  _atom_site_fract_y
  _atom_site_fract_z
  _atom_site_occupancy
  Pb  Pb1       1.0  0.25000005101127964  0.2500000070674682  0.2500000090607222  1.0000
  Pb  Pb2       1.0  0.749999959705407  0.7499999895089684  0.7500000681491976  1.0000
  Ge  Ge1       1.0  0.9999999951533967  0.9999999776281624  2.730911686206358e-08  1.0000
  S   S1        1.0  0.2514882710011857  0.2514882826946855  0.7485116616028972  1.0000
  S   S2        1.0  0.7485116764018013  0.7485117772686264  0.25148822072746546  1.0000
  S   S3        1.0  0.7485117894576824  0.25148826655311624  0.251488252405674  1.0000
  S   S4        1.0  0.2514883098902341  0.7485116908726066  0.7485117254756646  1.0000
  S   S5        1.0  0.25148826511835165  0.7485117576256011  0.2514882611939369  1.0000
  S   S6        1.0  0.7485116740292603  0.2514882743729123  0.7485117427568397  1.0000
