data_image0
_chemical_formula_structural       Pb2GeCl6
_chemical_formula_sum              "Pb2 Ge1 Cl6"
_cell_length_a       6.983561736105488
_cell_length_b       6.983561649849229
_cell_length_c       6.983561703050291
_cell_angle_alpha    59.99999929686714
_cell_angle_beta     60.00000175142311
_cell_angle_gamma    60.000002417187574

_space_group_name_H-M_alt    "P 1"
_space_group_IT_number       1

loop_
  _space_group_symop_operation_xyz
  'x, y, z'

loop_
  _atom_site_type_symbol
  _atom_site_label
  _atom_site_symmetry_multiplicity
  _atom_site_fract_x
  _atom_site_fract_y
  _atom_site_fract_z
  _atom_site_occupancy
  Pb  Pb1       1.0  0.2500000068751259  0.25000000901091907  0.2499999982952987  1.0000
  Pb  Pb2       1.0  0.7500001197840024  0.7499999428525719  0.7499999444386558  1.0000
  Ge  Ge1       1.0  1.7401396982954588e-07  0.9999999789549582  0.9999999149239337  1.0000
  Cl  Cl1       1.0  0.24027303735321073  0.24027288410198733  0.7597270724150031  1.0000
  Cl  Cl2       1.0  0.7597268309170688  0.7597270046263536  0.240273068311234  1.0000
  Cl  Cl3       1.0  0.7597269894575234  0.24027302379284896  0.24027303570646055  1.0000
  Cl  Cl4       1.0  0.2402729475700346  0.7597270455721485  0.7597270619430516  1.0000
  Cl  Cl5       1.0  0.24027288895882196  0.7597270425904332  0.24027296542572404  1.0000
  Cl  Cl6       1.0  0.7597270021387711  0.24027306535715162  0.7597269368586393  1.0000
