data_image0
_chemical_formula_structural       Pb2GeTe6
_chemical_formula_sum              "Pb2 Ge1 Te6"
_cell_length_a       7.395973609877465
_cell_length_b       7.395973541295402
_cell_length_c       7.395973536911261
_cell_angle_alpha    60.00000061724823
_cell_angle_beta     60.0000007684324
_cell_angle_gamma    59.999999730112606

_space_group_name_H-M_alt    "P 1"
_space_group_IT_number       1

loop_
  _space_group_symop_operation_xyz
  'x, y, z'

loop_
  _atom_site_type_symbol
  _atom_site_label
  _atom_site_symmetry_multiplicity
  _atom_site_fract_x
  _atom_site_fract_y
  _atom_site_fract_z
  _atom_site_occupancy
  Pb  Pb1       1.0  0.24999998172837906  0.2499999759012928  0.25000002876674093  1.0000
  Pb  Pb2       1.0  0.7500000143998731  0.749999982350613  0.7500000608758383  1.0000
  Ge  Ge1       1.0  2.1857578534740688e-08  0.9999999999999998  0.9999999674378183  1.0000
  Te  Te1       1.0  0.268371043738819  0.2683711260021368  0.7316289298247006  1.0000
  Te  Te2       1.0  0.7316289180093108  0.7316288885524657  0.2683710569146726  1.0000
  Te  Te3       1.0  0.731628929777705  0.26837111032281324  0.26837105762896313  1.0000
  Te  Te4       1.0  0.2683710540796231  0.7316289456308308  0.7316289149334217  1.0000
  Te  Te5       1.0  0.2683710943276449  0.7316289217386379  0.2683710701907104  1.0000
  Te  Te6       1.0  0.7316289358641123  0.26837105141692236  0.7316289151951535  1.0000
