data_image0
_chemical_formula_structural       Pb2GeF6
_chemical_formula_sum              "Pb2 Ge1 F6"
_cell_length_a       6.339216232891718
_cell_length_b       6.33921586745849
_cell_length_c       6.339215729903362
_cell_angle_alpha    60.000001749449936
_cell_angle_beta     59.99999825248323
_cell_angle_gamma    60.0000026152531

_space_group_name_H-M_alt    "P 1"
_space_group_IT_number       1

loop_
  _space_group_symop_operation_xyz
  'x, y, z'

loop_
  _atom_site_type_symbol
  _atom_site_label
  _atom_site_symmetry_multiplicity
  _atom_site_fract_x
  _atom_site_fract_y
  _atom_site_fract_z
  _atom_site_occupancy
  Pb  Pb1       1.0  0.25000011211815837  0.24999993868665119  0.2499998413062652  1.0000
  Pb  Pb2       1.0  0.7500000697843271  0.7499999764170451  0.7499999098740788  1.0000
  Ge  Ge1       1.0  9.40116509967745e-09  4.830032835641917e-08  0.9999999490645025  1.0000
  F   F1        1.0  0.20664549790897493  0.20664551063285064  0.7933545488940936  1.0000
  F   F2        1.0  0.7933545290695602  0.7933545686919662  0.2066454926268438  1.0000
  F   F3        1.0  0.7933545139064169  0.20664540049364197  0.20664552149852236  1.0000
  F   F4        1.0  0.20664543850356776  0.7933544817658292  0.7933545738102895  1.0000
  F   F5        1.0  0.20664535590434632  0.7933545830636681  0.20664555526045628  1.0000
  F   F6        1.0  0.7933543970728228  0.20664553683341483  0.7933545777353254  1.0000
