data_image0
_chemical_formula_structural       Pb2GeSe6
_chemical_formula_sum              "Pb2 Ge1 Se6"
_cell_length_a       6.829163998926727
_cell_length_b       6.829163832700908
_cell_length_c       6.829164076723568
_cell_angle_alpha    59.99999978684632
_cell_angle_beta     60.000000682936445
_cell_angle_gamma    60.00000154538868

_space_group_name_H-M_alt    "P 1"
_space_group_IT_number       1

loop_
  _space_group_symop_operation_xyz
  'x, y, z'

loop_
  _atom_site_type_symbol
  _atom_site_label
  _atom_site_symmetry_multiplicity
  _atom_site_fract_x
  _atom_site_fract_y
  _atom_site_fract_z
  _atom_site_occupancy
  Pb  Pb1       1.0  0.24999995533912459  0.25000007329863055  0.24999997803940682  1.0000
  Pb  Pb2       1.0  0.7500000372756145  0.7499998988766071  0.7500000953929169  1.0000
  Ge  Ge1       1.0  2.6370626358965166e-08  0.9999999766857505  0.9999999852930391  1.0000
  Se  Se1       1.0  0.257521991370702  0.25752200724407304  0.7424780373353471  1.0000
  Se  Se2       1.0  0.742478042011668  0.7424779846586078  0.25752201170667244  1.0000
  Se  Se3       1.0  0.7424779372538043  0.25752202698165433  0.2575220242901439  1.0000
  Se  Se4       1.0  0.2575220716539085  0.7424779774748523  0.7424779369965752  1.0000
  Se  Se5       1.0  0.2575220155622915  0.7424780135453863  0.25752197394914805  1.0000
  Se  Se6       1.0  0.7424779287683069  0.25752203753961844  0.7424779421324809  1.0000
