data_image0
_chemical_formula_structural       Pb2HgBr6
_chemical_formula_sum              "Pb2 Hg1 Br6"
_cell_length_a       7.4229874385899155
_cell_length_b       7.422987500312399
_cell_length_c       7.422987408259852
_cell_angle_alpha    60.000000274176074
_cell_angle_beta     59.99999972273841
_cell_angle_gamma    59.999999606332054

_space_group_name_H-M_alt    "P 1"
_space_group_IT_number       1

loop_
  _space_group_symop_operation_xyz
  'x, y, z'

loop_
  _atom_site_type_symbol
  _atom_site_label
  _atom_site_symmetry_multiplicity
  _atom_site_fract_x
  _atom_site_fract_y
  _atom_site_fract_z
  _atom_site_occupancy
  Pb  Pb1       1.0  0.24999998536065973  0.25000005074268394  0.2499999601481952  1.0000
  Pb  Pb2       1.0  0.750000039190703  0.7499999542358219  0.7500000065918302  1.0000
  Hg  Hg1       1.0  0.9999999802493462  0.9999999752509715  4.7846004793517404e-08  1.0000
  Br  Br1       1.0  0.26262304575250917  0.26262306008387337  0.7373769516163127  1.0000
  Br  Br2       1.0  0.7373769873935955  0.7373769564441791  0.26262304816089665  1.0000
  Br  Br3       1.0  0.7373770057586945  0.26262301218381306  0.2626230132146715  1.0000
  Br  Br4       1.0  0.2626230514920997  0.7373769366968944  0.7373769733075365  1.0000
  Br  Br5       1.0  0.26262297857902533  0.7373770026866147  0.26262302985040276  1.0000
  Br  Br6       1.0  0.7373769278107034  0.26262305343988473  0.7373769663549438  1.0000
