data_image0
_chemical_formula_structural       Pb2HgF6
_chemical_formula_sum              "Pb2 Hg1 F6"
_cell_length_a       5.947928385231426
_cell_length_b       5.947928627020208
_cell_length_c       5.9479284728863115
_cell_angle_alpha    59.99999910999193
_cell_angle_beta     59.99999934098842
_cell_angle_gamma    59.999999026215434

_space_group_name_H-M_alt    "P 1"
_space_group_IT_number       1

loop_
  _space_group_symop_operation_xyz
  'x, y, z'

loop_
  _atom_site_type_symbol
  _atom_site_label
  _atom_site_symmetry_multiplicity
  _atom_site_fract_x
  _atom_site_fract_y
  _atom_site_fract_z
  _atom_site_occupancy
  Pb  Pb1       1.0  0.25000004496347034  0.24999996739306096  0.25000006645109324  1.0000
  Pb  Pb2       1.0  0.7500000147016757  0.74999999483921  0.7500000113667199  1.0000
  Hg  Hg1       1.0  0.9999999401310555  5.147779083328963e-08  0.9999999957892882  1.0000
  F   F1        1.0  0.2622074474057472  0.2622075016634132  0.7377925094091023  1.0000
  F   F2        1.0  0.737792518798706  0.7377925429333256  0.26220742264363744  1.0000
  F   F3        1.0  0.7377925431942267  0.26220745091697434  0.26220745792373784  1.0000
  F   F4        1.0  0.2622074055380846  0.737792593679764  0.7377925248965135  1.0000
  F   F5        1.0  0.2622074784096573  0.737792499835889  0.26220746523683824  1.0000
  F   F6        1.0  0.7377925833348049  0.2622074212141514  0.7377925531133251  1.0000
