data_image0
_chemical_formula_structural       Pb2HfTe6
_chemical_formula_sum              "Pb2 Hf1 Te6"
_cell_length_a       7.529462251088313
_cell_length_b       7.529462188922728
_cell_length_c       7.529462150649933
_cell_angle_alpha    59.99999997531799
_cell_angle_beta     59.99999983650834
_cell_angle_gamma    59.99999933714428

_space_group_name_H-M_alt    "P 1"
_space_group_IT_number       1

loop_
  _space_group_symop_operation_xyz
  'x, y, z'

loop_
  _atom_site_type_symbol
  _atom_site_label
  _atom_site_symmetry_multiplicity
  _atom_site_fract_x
  _atom_site_fract_y
  _atom_site_fract_z
  _atom_site_occupancy
  Pb  Pb1       1.0  0.2499999915630441  0.2500000883215568  0.24999990870325145  1.0000
  Pb  Pb2       1.0  0.7500000035534804  0.7499999575366288  0.7500000885151084  1.0000
  Hf  Hf1       1.0  6.192663678811942e-10  2.114584412704838e-08  1.0067919816066602e-07  1.0000
  Te  Te1       1.0  0.2665722168142875  0.26657225873607915  0.7334277884221089  1.0000
  Te  Te2       1.0  0.7334277458659354  0.7334277188047641  0.26657225917307303  1.0000
  Te  Te3       1.0  0.7334278215125776  0.26657220571235424  0.26657220181959795  1.0000
  Te  Te4       1.0  0.2665722779829077  0.7334276742322847  0.7334277358541589  1.0000
  Te  Te5       1.0  0.2665722331455911  0.7334277896747838  0.26657219750656264  1.0000
  Te  Te6       1.0  0.7334277126944748  0.26657229359528023  0.7334277193165402  1.0000
