data_image0
_chemical_formula_structural       Pb2IrS6
_chemical_formula_sum              "Pb2 Ir1 S6"
_cell_length_a       6.463026895849548
_cell_length_b       6.463026892540879
_cell_length_c       6.463026940002594
_cell_angle_alpha    59.999999495790476
_cell_angle_beta     60.00000035038121
_cell_angle_gamma    60.000000424176385

_space_group_name_H-M_alt    "P 1"
_space_group_IT_number       1

loop_
  _space_group_symop_operation_xyz
  'x, y, z'

loop_
  _atom_site_type_symbol
  _atom_site_label
  _atom_site_symmetry_multiplicity
  _atom_site_fract_x
  _atom_site_fract_y
  _atom_site_fract_z
  _atom_site_occupancy
  Pb  Pb1       1.0  0.24999999196197398  0.2500000077390905  0.25000001002815375  1.0000
  Pb  Pb2       1.0  0.7500000071069679  0.7500000099522579  0.7500000040865565  1.0000
  Ir  Ir1       1.0  0.9999999948382846  2.0845021716581852e-08  0.9999999983473973  1.0000
  S   S1        1.0  0.25438790162051517  0.2543878841810215  0.7456121138936405  1.0000
  S   S2        1.0  0.7456120990368921  0.745612112665305  0.25438790830208524  1.0000
  S   S3        1.0  0.7456120896202338  0.25438793251642977  0.2543879224813028  1.0000
  S   S4        1.0  0.2543879193572255  0.7456120340098653  0.7456120797691604  1.0000
  S   S5        1.0  0.25438792237562013  0.7456120592747606  0.25438792259481974  1.0000
  S   S6        1.0  0.7456120518973257  0.25438794704657597  0.7456120600904904  1.0000
