data_image0
_chemical_formula_structural       Pb2InBr6
_chemical_formula_sum              "Pb2 In1 Br6"
_cell_length_a       7.441484562814558
_cell_length_b       7.4414845658131
_cell_length_c       7.44148458117242
_cell_angle_alpha    59.99999997947528
_cell_angle_beta     60.000000094269076
_cell_angle_gamma    60.00000049037262

_space_group_name_H-M_alt    "P 1"
_space_group_IT_number       1

loop_
  _space_group_symop_operation_xyz
  'x, y, z'

loop_
  _atom_site_type_symbol
  _atom_site_label
  _atom_site_symmetry_multiplicity
  _atom_site_fract_x
  _atom_site_fract_y
  _atom_site_fract_z
  _atom_site_occupancy
  Pb  Pb1       1.0  0.24999997703400512  0.25000004267975323  0.24999997167341131  1.0000
  Pb  Pb2       1.0  0.7499999990975227  0.7499999799141953  0.7500000451208102  1.0000
  In  In1       1.0  6.411231754926346e-09  0.9999999621458169  0.9999999001531384  1.0000
  Br  Br1       1.0  0.2549956986662531  0.25499571186812026  0.745004285599496  1.0000
  Br  Br2       1.0  0.7450043126059296  0.7450043123716625  0.2549956617364017  1.0000
  Br  Br3       1.0  0.7450042327013728  0.25499577545083996  0.25499574532965447  1.0000
  Br  Br4       1.0  0.25499567027936326  0.7450043129764701  0.7450043302198149  1.0000
  Br  Br5       1.0  0.2549957884662384  0.7450042258076641  0.25499575523251783  1.0000
  Br  Br6       1.0  0.7450043187160325  0.2549956782862335  0.7450043090390729  1.0000
