data_image0
_chemical_formula_structural       Pb2IrO6
_chemical_formula_sum              "Pb2 Ir1 O6"
_cell_length_a       5.732009547288633
_cell_length_b       5.7320098384572455
_cell_length_c       5.732009670705058
_cell_angle_alpha    60.000000594254104
_cell_angle_beta     60.0000001310649
_cell_angle_gamma    60.00000213575699

_space_group_name_H-M_alt    "P 1"
_space_group_IT_number       1

loop_
  _space_group_symop_operation_xyz
  'x, y, z'

loop_
  _atom_site_type_symbol
  _atom_site_label
  _atom_site_symmetry_multiplicity
  _atom_site_fract_x
  _atom_site_fract_y
  _atom_site_fract_z
  _atom_site_occupancy
  Pb  Pb1       1.0  0.24999998240430654  0.2500000186760211  0.24999998371171686  1.0000
  Pb  Pb2       1.0  0.7499999787742674  0.7499999855177518  0.7499999985230543  1.0000
  Ir  Ir1       1.0  0.9999999825819269  0.9999999978633233  7.258257244562164e-08  1.0000
  O   O1        1.0  0.23346503755207032  0.2334650624898607  0.7665349367276321  1.0000
  O   O2        1.0  0.7665349538436692  0.7665349417039123  0.23346506180115484  1.0000
  O   O3        1.0  0.7665349756771164  0.23346502763696148  0.23346502993715196  1.0000
  O   O4        1.0  0.2334650928797668  0.7665349445066708  0.7665349320794237  1.0000
  O   O5        1.0  0.23346502657528792  0.7665349847880665  0.23346504717780328  1.0000
  O   O6        1.0  0.7665349853108591  0.23346503649911546  0.7665349587279081  1.0000
