data_image0
_chemical_formula_structural       Pb2InCl6
_chemical_formula_sum              "Pb2 In1 Cl6"
_cell_length_a       7.051152165087296
_cell_length_b       7.051152194768635
_cell_length_c       7.051152096704159
_cell_angle_alpha    60.00000021077235
_cell_angle_beta     59.99999950042787
_cell_angle_gamma    60.00000104192686

_space_group_name_H-M_alt    "P 1"
_space_group_IT_number       1

loop_
  _space_group_symop_operation_xyz
  'x, y, z'

loop_
  _atom_site_type_symbol
  _atom_site_label
  _atom_site_symmetry_multiplicity
  _atom_site_fract_x
  _atom_site_fract_y
  _atom_site_fract_z
  _atom_site_occupancy
  Pb  Pb1       1.0  0.24999997678348831  0.2500000054479331  0.25000002978831687  1.0000
  Pb  Pb2       1.0  0.749999994960648  0.7500000632412579  0.7499999981559303  1.0000
  In  In1       1.0  0.9999999570589952  0.999999961787256  0.9999999611572292  1.0000
  Cl  Cl1       1.0  0.25185894696943084  0.25185892009185046  0.7481410450458297  1.0000
  Cl  Cl2       1.0  0.7481410801241156  0.7481410513285396  0.2518589116745956  1.0000
  Cl  Cl3       1.0  0.748141028538206  0.25185897921476436  0.25185890531161415  1.0000
  Cl  Cl4       1.0  0.2518589373338268  0.7481410825266551  0.7481411247879469  1.0000
  Cl  Cl5       1.0  0.2518589689578256  0.7481410441779069  0.2518589019258059  1.0000
  Cl  Cl6       1.0  0.7481411095968515  0.2518588907666831  0.7481411210487673  1.0000
