data_image0
_chemical_formula_structural       Pb2IrSe6
_chemical_formula_sum              "Pb2 Ir1 Se6"
_cell_length_a       6.800100455410485
_cell_length_b       6.800100418312829
_cell_length_c       6.800100557208646
_cell_angle_alpha    59.99999905289
_cell_angle_beta     59.99999913028336
_cell_angle_gamma    59.99999904088634

_space_group_name_H-M_alt    "P 1"
_space_group_IT_number       1

loop_
  _space_group_symop_operation_xyz
  'x, y, z'

loop_
  _atom_site_type_symbol
  _atom_site_label
  _atom_site_symmetry_multiplicity
  _atom_site_fract_x
  _atom_site_fract_y
  _atom_site_fract_z
  _atom_site_occupancy
  Pb  Pb1       1.0  0.25000003793587944  0.25000000751218215  0.24999998067247448  1.0000
  Pb  Pb2       1.0  0.7499999892662861  0.7499999937194456  0.7500000157555172  1.0000
  Ir  Ir1       1.0  0.9999999650440179  0.9999999927957247  7.843222189495515e-08  1.0000
  Se  Se1       1.0  0.25715816518244516  0.2571581367658146  0.7428418422987093  1.0000
  Se  Se2       1.0  0.7428418579379045  0.7428418410519184  0.2571581487597735  1.0000
  Se  Se3       1.0  0.7428418379897083  0.2571581700111894  0.25715819958778663  1.0000
  Se  Se4       1.0  0.25715821109895215  0.7428418114086812  0.742841767862073  1.0000
  Se  Se5       1.0  0.25715814751831445  0.7428418446350834  0.25715819612533564  1.0000
  Se  Se6       1.0  0.7428417887594178  0.25715820522540267  0.7428417670394835  1.0000
