data_image0
_chemical_formula_structural       Pb2MoO6
_chemical_formula_sum              "Pb2 Mo1 O6"
_cell_length_a       5.780661495017198
_cell_length_b       5.78066139352215
_cell_length_c       5.780661546483823
_cell_angle_alpha    59.999998092115646
_cell_angle_beta     59.99999864757419
_cell_angle_gamma    59.999999113062096

_space_group_name_H-M_alt    "P 1"
_space_group_IT_number       1

loop_
  _space_group_symop_operation_xyz
  'x, y, z'

loop_
  _atom_site_type_symbol
  _atom_site_label
  _atom_site_symmetry_multiplicity
  _atom_site_fract_x
  _atom_site_fract_y
  _atom_site_fract_z
  _atom_site_occupancy
  Pb  Pb1       1.0  0.24999998949877852  0.2500000184918852  0.24999996554557583  1.0000
  Pb  Pb2       1.0  0.7500000171847018  0.7499999813213869  0.7500000546817671  1.0000
  Mo  Mo1       1.0  0.9999999734471369  0.9999999957626127  6.72922998113268e-08  1.0000
  O   O1        1.0  0.2366858886975  0.2366859187244976  0.7633141485149137  1.0000
  O   O2        1.0  0.7633141247851614  0.7633141086317883  0.23668585973104891  1.0000
  O   O3        1.0  0.7633141215066445  0.23668585643525897  0.2366859750490621  1.0000
  O   O4        1.0  0.23668584948454785  0.7633140946480654  0.7633140735501529  1.0000
  O   O5        1.0  0.23668598526005397  0.7633140457398916  0.2366858465564714  1.0000
  O   O6        1.0  0.7633140659539981  0.23668595831076786  0.7633141129588695  1.0000
