data_image0
_chemical_formula_structural       Pb2MnF6
_chemical_formula_sum              "Pb2 Mn1 F6"
_cell_length_a       5.752439347170237
_cell_length_b       5.752439269567653
_cell_length_c       5.752439227267578
_cell_angle_alpha    60.000000805209865
_cell_angle_beta     59.999999541345744
_cell_angle_gamma    60.00000009225616

_space_group_name_H-M_alt    "P 1"
_space_group_IT_number       1

loop_
  _space_group_symop_operation_xyz
  'x, y, z'

loop_
  _atom_site_type_symbol
  _atom_site_label
  _atom_site_symmetry_multiplicity
  _atom_site_fract_x
  _atom_site_fract_y
  _atom_site_fract_z
  _atom_site_occupancy
  Pb  Pb1       1.0  0.2500000129401142  0.24999988646390384  0.2500000537739205  1.0000
  Pb  Pb2       1.0  0.7499999828725415  0.7500000319820876  0.7500000551522653  1.0000
  Mn  Mn1       1.0  0.9999999777558989  7.87762490295866e-08  0.9999998031098071  1.0000
  F   F1        1.0  0.2494259212390339  0.2494259791530889  0.7505740456971451  1.0000
  F   F2        1.0  0.750574016642975  0.7505740649090857  0.24942597897287735  1.0000
  F   F3        1.0  0.7505741314404216  0.24942587421221046  0.2494259047423447  1.0000
  F   F4        1.0  0.2494258862683525  0.7505741592045245  0.7505740453539753  1.0000
  F   F5        1.0  0.2494259170527382  0.75057406015779  0.24942598280732484  1.0000
  F   F6        1.0  0.7505741524220552  0.24942589022451986  0.7505741341633869  1.0000
