data_image0
_chemical_formula_structural       Pb2MgCl6
_chemical_formula_sum              "Pb2 Mg1 Cl6"
_cell_length_a       6.79449064853673
_cell_length_b       6.794491817892072
_cell_length_c       6.794491202671708
_cell_angle_alpha    60.00000376676084
_cell_angle_beta     59.99999854286328
_cell_angle_gamma    60.00000369462816

_space_group_name_H-M_alt    "P 1"
_space_group_IT_number       1

loop_
  _space_group_symop_operation_xyz
  'x, y, z'

loop_
  _atom_site_type_symbol
  _atom_site_label
  _atom_site_symmetry_multiplicity
  _atom_site_fract_x
  _atom_site_fract_y
  _atom_site_fract_z
  _atom_site_occupancy
  Pb  Pb1       1.0  0.25000009359302117  0.24999983718071145  0.2500000735411023  1.0000
  Pb  Pb2       1.0  0.7500000069674847  0.7500000270729819  0.7499999702469846  1.0000
  Mg  Mg1       1.0  0.9999999591951321  3.064344234273341e-08  3.304454302912717e-08  1.0000
  Cl  Cl1       1.0  0.2508517075995546  0.2508518296312115  0.7491481921245612  1.0000
  Cl  Cl2       1.0  0.7491483698016284  0.7491481499860276  0.2508517775975843  1.0000
  Cl  Cl3       1.0  0.7491484118069803  0.25085159341674107  0.25085184272725525  1.0000
  Cl  Cl4       1.0  0.2508515417039951  0.7491484366720503  0.7491480680384811  1.0000
  Cl  Cl5       1.0  0.2508514674300646  0.7491485031473596  0.2508519421748007  1.0000
  Cl  Cl6       1.0  0.7491484314564524  0.25085159904364873  0.7491481040865502  1.0000
