data_image0
_chemical_formula_structural       Pb2MnBr6
_chemical_formula_sum              "Pb2 Mn1 Br6"
_cell_length_a       7.238029043285027
_cell_length_b       7.238029028373695
_cell_length_c       7.23802899592738
_cell_angle_alpha    59.999999923146284
_cell_angle_beta     60.00000013950124
_cell_angle_gamma    59.99999912813338

_space_group_name_H-M_alt    "P 1"
_space_group_IT_number       1

loop_
  _space_group_symop_operation_xyz
  'x, y, z'

loop_
  _atom_site_type_symbol
  _atom_site_label
  _atom_site_symmetry_multiplicity
  _atom_site_fract_x
  _atom_site_fract_y
  _atom_site_fract_z
  _atom_site_occupancy
  Pb  Pb1       1.0  0.25000001734112137  0.2500000740256514  0.24999994159288638  1.0000
  Pb  Pb2       1.0  0.7500000573126558  0.7500000004122188  0.7499999744141292  1.0000
  Mn  Mn1       1.0  0.9999999630172173  1.522887532290547e-08  0.9999999956794462  1.0000
  Br  Br1       1.0  0.24459924256248422  0.2445992302829459  0.7554007635815467  1.0000
  Br  Br2       1.0  0.7554008024741394  0.7554007798552305  0.24459920905503366  1.0000
  Br  Br3       1.0  0.7554007394150757  0.24459922440503815  0.24459925592678955  1.0000
  Br  Br4       1.0  0.24459921857271094  0.7554007214334445  0.7554008158711134  1.0000
  Br  Br5       1.0  0.24459920806057656  0.7554007445859102  0.24459924159918897  1.0000
  Br  Br6       1.0  0.7554007487023725  0.24459920971305868  0.7554008003306493  1.0000
