data_image0
_chemical_formula_structural       Pb2MoSe6
_chemical_formula_sum              "Pb2 Mo1 Se6"
_cell_length_a       6.918955529130649
_cell_length_b       6.918955484408987
_cell_length_c       6.918955460661577
_cell_angle_alpha    60.00000045901065
_cell_angle_beta     60.00000022579068
_cell_angle_gamma    60.000000566697096

_space_group_name_H-M_alt    "P 1"
_space_group_IT_number       1

loop_
  _space_group_symop_operation_xyz
  'x, y, z'

loop_
  _atom_site_type_symbol
  _atom_site_label
  _atom_site_symmetry_multiplicity
  _atom_site_fract_x
  _atom_site_fract_y
  _atom_site_fract_z
  _atom_site_occupancy
  Pb  Pb1       1.0  0.24999999196205583  0.24999996398245092  0.25000003400321724  1.0000
  Pb  Pb2       1.0  0.7500000126509697  0.7499999769135787  0.75000001801926  1.0000
  Mo  Mo1       1.0  0.9999999477407311  5.66441502669223e-08  0.999999970346767  1.0000
  Se  Se1       1.0  0.25258963791684297  0.25258967121627046  0.7474103486940495  1.0000
  Se  Se2       1.0  0.7474103918973294  0.7474103192433909  0.2525896471570753  1.0000
  Se  Se3       1.0  0.7474103283024265  0.25258966358176443  0.25258964135206313  1.0000
  Se  Se4       1.0  0.2525896524051639  0.7474103640506204  0.7474103156615399  1.0000
  Se  Se5       1.0  0.25258969005017134  0.7474103477617806  0.25258967353620027  1.0000
  Se  Se6       1.0  0.7474103492885588  0.25258963915762134  0.7474103453382627  1.0000
