data_image0
_chemical_formula_structural       Pb2MnSe6
_chemical_formula_sum              "Pb2 Mn1 Se6"
_cell_length_a       6.821969544518774
_cell_length_b       6.8219696737175575
_cell_length_c       6.821969826853823
_cell_angle_alpha    59.99999879417126
_cell_angle_beta     59.999998244114366
_cell_angle_gamma    60.00000040741561

_space_group_name_H-M_alt    "P 1"
_space_group_IT_number       1

loop_
  _space_group_symop_operation_xyz
  'x, y, z'

loop_
  _atom_site_type_symbol
  _atom_site_label
  _atom_site_symmetry_multiplicity
  _atom_site_fract_x
  _atom_site_fract_y
  _atom_site_fract_z
  _atom_site_occupancy
  Pb  Pb1       1.0  0.2500000633364908  0.2500000240702098  0.24999998643688184  1.0000
  Pb  Pb2       1.0  0.7499999423236778  0.7500000129658885  0.7500000160296638  1.0000
  Mn  Mn1       1.0  0.9999999526916848  2.5134130992326944e-08  6.689535319298999e-09  1.0000
  Se  Se1       1.0  0.24424246190065083  0.24424240477812742  0.7557575919379427  1.0000
  Se  Se2       1.0  0.7557575394532247  0.755757502996723  0.24424252568549923  1.0000
  Se  Se3       1.0  0.755757639957349  0.24424242764423879  0.24424234603316095  1.0000
  Se  Se4       1.0  0.2442424173878905  0.7557575914389095  0.7557575516161879  1.0000
  Se  Se5       1.0  0.24424240818680504  0.7557575844010618  0.24424240230064753  1.0000
  Se  Se6       1.0  0.7557575646300836  0.24424242929620002  0.7557575725545703  1.0000
