data_image0
_chemical_formula_structural       Pb2MnO6
_chemical_formula_sum              "Pb2 Mn1 O6"
_cell_length_a       5.473905324674006
_cell_length_b       5.47390539262743
_cell_length_c       5.473905266487345
_cell_angle_alpha    60.000000745382415
_cell_angle_beta     60.00000185084386
_cell_angle_gamma    60.000001650582675

_space_group_name_H-M_alt    "P 1"
_space_group_IT_number       1

loop_
  _space_group_symop_operation_xyz
  'x, y, z'

loop_
  _atom_site_type_symbol
  _atom_site_label
  _atom_site_symmetry_multiplicity
  _atom_site_fract_x
  _atom_site_fract_y
  _atom_site_fract_z
  _atom_site_occupancy
  Pb  Pb1       1.0  0.2500000005124209  0.2500000168798235  0.24999997158975246  1.0000
  Pb  Pb2       1.0  0.7500000127243839  0.7500000170781068  0.7499999387443239  1.0000
  Mn  Mn1       1.0  0.999999997272687  0.9999999955251521  0.9999999140854648  1.0000
  O   O1        1.0  0.24080441319479404  0.24080439939740766  0.7591956262728194  1.0000
  O   O2        1.0  0.7591955697856653  0.7591955987617343  0.24080441025813767  1.0000
  O   O3        1.0  0.759195595155052  0.2408043852688994  0.24080442263454566  1.0000
  O   O4        1.0  0.24080442159878257  0.7591955748540306  0.759195632469474  1.0000
  O   O5        1.0  0.24080436372587746  0.759195604739218  0.2408044519038162  1.0000
  O   O6        1.0  0.7591956263287822  0.24080439118249936  0.7591956370142321  1.0000
