data_image0
_chemical_formula_structural       Pb2MoS6
_chemical_formula_sum              "Pb2 Mo1 S6"
_cell_length_a       6.568349300174902
_cell_length_b       6.568349252784785
_cell_length_c       6.568349239177305
_cell_angle_alpha    60.00000089033581
_cell_angle_beta     59.99999994092375
_cell_angle_gamma    59.999999272318256

_space_group_name_H-M_alt    "P 1"
_space_group_IT_number       1

loop_
  _space_group_symop_operation_xyz
  'x, y, z'

loop_
  _atom_site_type_symbol
  _atom_site_label
  _atom_site_symmetry_multiplicity
  _atom_site_fract_x
  _atom_site_fract_y
  _atom_site_fract_z
  _atom_site_occupancy
  Pb  Pb1       1.0  0.24999999380191726  0.25000002776136876  0.25000001602334415  1.0000
  Pb  Pb2       1.0  0.7500000009933686  0.7500000086994679  0.7499999796540325  1.0000
  Mo  Mo1       1.0  2.8322610137087733e-08  2.0510774582354942e-08  0.9999999466567093  1.0000
  S   S1        1.0  0.25129141031702157  0.25129143439067003  0.7487085557997315  1.0000
  S   S2        1.0  0.7487085487520808  0.7487085088393701  0.2512914708621787  1.0000
  S   S3        1.0  0.7487085775893284  0.2512914370320304  0.25129139589376315  1.0000
  S   S4        1.0  0.2512913752094969  0.748708619939582  0.7487086181387191  1.0000
  S   S5        1.0  0.251291450738197  0.7487085307093765  0.2512914321714437  1.0000
  S   S6        1.0  0.7487086167039257  0.25129141438527874  0.748708577432962  1.0000
