data_image0
_chemical_formula_structural       Pb2NbCl6
_chemical_formula_sum              "Pb2 Nb1 Cl6"
_cell_length_a       7.113645773143841
_cell_length_b       7.1136457740408146
_cell_length_c       7.113645171586887
_cell_angle_alpha    60.00000256441607
_cell_angle_beta     60.000002548816326
_cell_angle_gamma    59.999996024892155

_space_group_name_H-M_alt    "P 1"
_space_group_IT_number       1

loop_
  _space_group_symop_operation_xyz
  'x, y, z'

loop_
  _atom_site_type_symbol
  _atom_site_label
  _atom_site_symmetry_multiplicity
  _atom_site_fract_x
  _atom_site_fract_y
  _atom_site_fract_z
  _atom_site_occupancy
  Pb  Pb1       1.0  0.25000008748125324  0.25000003475395804  0.24999991184695347  1.0000
  Pb  Pb2       1.0  0.750000085695827  0.7499999527537115  0.7499999081034031  1.0000
  Nb  Nb1       1.0  8.670297007755415e-08  0.9999999931132598  0.9999996325523544  1.0000
  Cl  Cl1       1.0  0.2435415449585103  0.24354153007876245  0.7564584979139215  1.0000
  Cl  Cl2       1.0  0.7564584142659462  0.7564584126651418  0.24354159337528478  1.0000
  Cl  Cl3       1.0  0.7564583984684536  0.24354154223991584  0.24354159929207503  1.0000
  Cl  Cl4       1.0  0.2435412535848184  0.7564587327889803  0.7564586973313316  1.0000
  Cl  Cl5       1.0  0.24354140133535582  0.7564585563524898  0.24354148119821203  1.0000
  Cl  Cl6       1.0  0.7564587122609586  0.24354126415185484  0.7564586811812868  1.0000
