data_image0
_chemical_formula_structural       Pb2NiS6
_chemical_formula_sum              "Pb2 Ni1 S6"
_cell_length_a       6.355660091949373
_cell_length_b       6.355660101687306
_cell_length_c       6.355660004651626
_cell_angle_alpha    59.999999411523795
_cell_angle_beta     59.99999968393699
_cell_angle_gamma    59.99999943344073

_space_group_name_H-M_alt    "P 1"
_space_group_IT_number       1

loop_
  _space_group_symop_operation_xyz
  'x, y, z'

loop_
  _atom_site_type_symbol
  _atom_site_label
  _atom_site_symmetry_multiplicity
  _atom_site_fract_x
  _atom_site_fract_y
  _atom_site_fract_z
  _atom_site_occupancy
  Pb  Pb1       1.0  0.24999999384851646  0.2500000067898339  0.2500000052335826  1.0000
  Pb  Pb2       1.0  0.7500000084859343  0.7500000049533864  0.7499999674567939  1.0000
  Ni  Ni1       1.0  0.9999999405396942  6.937252087157166e-08  0.9999999085068528  1.0000
  S   S1        1.0  0.24501931083685669  0.24501921700248744  0.7549807460575072  1.0000
  S   S2        1.0  0.7549807150436899  0.7549807350032847  0.2450192966507694  1.0000
  S   S3        1.0  0.7549807421820967  0.24501921607774102  0.24501928963620057  1.0000
  S   S4        1.0  0.24501923012939508  0.754980782176378  0.7549807378516212  1.0000
  S   S5        1.0  0.24501927523554876  0.7549807677433247  0.24501926963246712  1.0000
  S   S6        1.0  0.754980766665634  0.245019201605577  0.7549807831417384  1.0000
