data_image0
_chemical_formula_structural       Pb2NbSe6
_chemical_formula_sum              "Pb2 Nb1 Se6"
_cell_length_a       6.9276676967525885
_cell_length_b       6.927667707683317
_cell_length_c       6.927667654058905
_cell_angle_alpha    59.999999758742966
_cell_angle_beta     60.00000016814673
_cell_angle_gamma    59.99999969685132

_space_group_name_H-M_alt    "P 1"
_space_group_IT_number       1

loop_
  _space_group_symop_operation_xyz
  'x, y, z'

loop_
  _atom_site_type_symbol
  _atom_site_label
  _atom_site_symmetry_multiplicity
  _atom_site_fract_x
  _atom_site_fract_y
  _atom_site_fract_z
  _atom_site_occupancy
  Pb  Pb1       1.0  0.24999999028705583  0.25000005772462464  0.24999997541585975  1.0000
  Pb  Pb2       1.0  0.7499999999074248  0.7499999610254404  0.7500000206856424  1.0000
  Nb  Nb1       1.0  1.1852437274281226e-08  1.9446939629344546e-08  0.9999999958982095  1.0000
  Se  Se1       1.0  0.2565383606212149  0.2565383476865377  0.7434616572181777  1.0000
  Se  Se2       1.0  0.7434616570508589  0.7434616286338404  0.2565383752291169  1.0000
  Se  Se3       1.0  0.7434616495438766  0.2565383477200047  0.2565383348516918  1.0000
  Se  Se4       1.0  0.2565383545078561  0.7434616144571448  0.7434616667292826  1.0000
  Se  Se5       1.0  0.2565383418017265  0.7434616631020404  0.2565383379940278  1.0000
  Se  Se6       1.0  0.7434616297546793  0.2565383715591573  0.7434616349316621  1.0000
