data_image0
_chemical_formula_structural       Pb2NiI6
_chemical_formula_sum              "Pb2 Ni1 I6"
_cell_length_a       7.627614263406507
_cell_length_b       7.627613880603199
_cell_length_c       7.627614176903087
_cell_angle_alpha    59.99999873312793
_cell_angle_beta     59.9999996018769
_cell_angle_gamma    59.999999652979334

_space_group_name_H-M_alt    "P 1"
_space_group_IT_number       1

loop_
  _space_group_symop_operation_xyz
  'x, y, z'

loop_
  _atom_site_type_symbol
  _atom_site_label
  _atom_site_symmetry_multiplicity
  _atom_site_fract_x
  _atom_site_fract_y
  _atom_site_fract_z
  _atom_site_occupancy
  Pb  Pb1       1.0  0.24999996899759797  0.24999999702429454  0.25000005378506707  1.0000
  Pb  Pb2       1.0  0.7500000124580465  0.7499999380856962  0.7499999358402261  1.0000
  Ni  Ni1       1.0  2.6546033644209167e-08  0.9999999839432766  2.621500315799945e-09  1.0000
  I   I1        1.0  0.24947239228589244  0.24947241317426586  0.7505276001852774  1.0000
  I   I2        1.0  0.7505276011571484  0.7505275813456032  0.24947244026909  1.0000
  I   I3        1.0  0.7505275903643713  0.24947243356044882  0.2494723832350033  1.0000
  I   I4        1.0  0.24947243404288896  0.7505276043125746  0.7505275912181064  1.0000
  I   I5        1.0  0.2494723843384828  0.750527583477419  0.24947241559732772  1.0000
  I   I6        1.0  0.7505275878792539  0.2494724656353105  0.7505275845747946  1.0000
