data_image0
_chemical_formula_structural       Pb2NiTe6
_chemical_formula_sum              "Pb2 Ni1 Te6"
_cell_length_a       7.139333235105329
_cell_length_b       7.139333261398311
_cell_length_c       7.139333337356167
_cell_angle_alpha    59.999999458736454
_cell_angle_beta     59.999998885164565
_cell_angle_gamma    59.99999973194384

_space_group_name_H-M_alt    "P 1"
_space_group_IT_number       1

loop_
  _space_group_symop_operation_xyz
  'x, y, z'

loop_
  _atom_site_type_symbol
  _atom_site_label
  _atom_site_symmetry_multiplicity
  _atom_site_fract_x
  _atom_site_fract_y
  _atom_site_fract_z
  _atom_site_occupancy
  Pb  Pb1       1.0  0.24999996548939485  0.24999996893676796  0.2500000552149293  1.0000
  Pb  Pb2       1.0  0.7500000330287151  0.7500000114551424  0.749999911976457  1.0000
  Ni  Ni1       1.0  5.619897911025849e-08  4.974918550887763e-08  4.9276360841515454e-08  1.0000
  Te  Te1       1.0  0.2548464527263609  0.2548464746814006  0.7451535266629818  1.0000
  Te  Te2       1.0  0.7451534804434934  0.7451534834091506  0.2548465599905264  1.0000
  Te  Te3       1.0  0.7451535757326108  0.25484642900396137  0.2548464583544109  1.0000
  Te  Te4       1.0  0.2548464608513708  0.7451535342330573  0.7451534661655922  1.0000
  Te  Te5       1.0  0.25484642820396003  0.7451535203736838  0.25484653993337747  1.0000
  Te  Te6       1.0  0.7451535512475483  0.2548465269223033  0.7451534383565462  1.0000
