data_image0
_chemical_formula_structural       Pb2NbTe6
_chemical_formula_sum              "Pb2 Nb1 Te6"
_cell_length_a       7.4306265197778645
_cell_length_b       7.4306265405965926
_cell_length_c       7.430626610348836
_cell_angle_alpha    59.99999948534675
_cell_angle_beta     59.99999910843819
_cell_angle_gamma    60.00000068951218

_space_group_name_H-M_alt    "P 1"
_space_group_IT_number       1

loop_
  _space_group_symop_operation_xyz
  'x, y, z'

loop_
  _atom_site_type_symbol
  _atom_site_label
  _atom_site_symmetry_multiplicity
  _atom_site_fract_x
  _atom_site_fract_y
  _atom_site_fract_z
  _atom_site_occupancy
  Pb  Pb1       1.0  0.24999995262661903  0.25000002078126804  0.250000036861175  1.0000
  Pb  Pb2       1.0  0.7499999962940408  0.7500000293790252  0.7499999569252077  1.0000
  Nb  Nb1       1.0  2.8380946814815983e-08  0.9999999241810047  6.005512538338544e-08  1.0000
  Te  Te1       1.0  0.26217489840431324  0.2621748751276451  0.737825121235462  1.0000
  Te  Te2       1.0  0.737825164177372  0.7378251091030881  0.26217487021769226  1.0000
  Te  Te3       1.0  0.7378250754215508  0.26217492210187954  0.2621749029985748  1.0000
  Te  Te4       1.0  0.26217489297901075  0.7378251115760236  0.7378251296624978  1.0000
  Te  Te5       1.0  0.2621748750437101  0.7378251117989518  0.26217486494988784  1.0000
  Te  Te6       1.0  0.7378251192411814  0.2621748955071271  0.7378250562550654  1.0000
