data_image0
_chemical_formula_structural       Pb2NbS6
_chemical_formula_sum              "Pb2 Nb1 S6"
_cell_length_a       6.551918403286597
_cell_length_b       6.551918372860724
_cell_length_c       6.551918255067513
_cell_angle_alpha    60.000000690778776
_cell_angle_beta     59.99999995147897
_cell_angle_gamma    59.99999906851329

_space_group_name_H-M_alt    "P 1"
_space_group_IT_number       1

loop_
  _space_group_symop_operation_xyz
  'x, y, z'

loop_
  _atom_site_type_symbol
  _atom_site_label
  _atom_site_symmetry_multiplicity
  _atom_site_fract_x
  _atom_site_fract_y
  _atom_site_fract_z
  _atom_site_occupancy
  Pb  Pb1       1.0  0.24999994039247145  0.25000001713225095  0.2499999897645663  1.0000
  Pb  Pb2       1.0  0.7499999840652186  0.7500000121416186  0.7499999853171622  1.0000
  Nb  Nb1       1.0  1.6163845977003796e-08  1.4954335929929303e-08  0.9999999966510735  1.0000
  S   S1        1.0  0.2566592789428351  0.25665930085296457  0.743340740020996  1.0000
  S   S2        1.0  0.7433407122014651  0.7433406816886042  0.25665933192251705  1.0000
  S   S3        1.0  0.7433407819085293  0.2566592353308718  0.25665923358866066  1.0000
  S   S4        1.0  0.25665929415099153  0.7433407303870674  0.7433407310480691  1.0000
  S   S5        1.0  0.256659264206323  0.743340720914478  0.25665928040505936  1.0000
  S   S6        1.0  0.7433407229855802  0.2566592840585947  0.7433407273531598  1.0000
