data_image0
_chemical_formula_structural       Pb2NbBr6
_chemical_formula_sum              "Pb2 Nb1 Br6"
_cell_length_a       7.551171604198176
_cell_length_b       7.551171520280961
_cell_length_c       7.5511715016202725
_cell_angle_alpha    60.00000081564201
_cell_angle_beta     60.0000009076288
_cell_angle_gamma    60.00000058857411

_space_group_name_H-M_alt    "P 1"
_space_group_IT_number       1

loop_
  _space_group_symop_operation_xyz
  'x, y, z'

loop_
  _atom_site_type_symbol
  _atom_site_label
  _atom_site_symmetry_multiplicity
  _atom_site_fract_x
  _atom_site_fract_y
  _atom_site_fract_z
  _atom_site_occupancy
  Pb  Pb1       1.0  0.2500000375900137  0.2500000016815962  0.24999995469908315  1.0000
  Pb  Pb2       1.0  0.7499999300729622  0.7500000163982775  0.7500000530642744  1.0000
  Nb  Nb1       1.0  0.9999999247766048  4.217010080117977e-08  4.4336901481194157e-08  1.0000
  Br  Br1       1.0  0.24280645560852132  0.242806441020214  0.7571935510100809  1.0000
  Br  Br2       1.0  0.7571935832760042  0.7571936111201258  0.24280641470665182  1.0000
  Br  Br3       1.0  0.7571935896515671  0.24280637082672682  0.24280645963151343  1.0000
  Br  Br4       1.0  0.24280648194977586  0.7571935694006529  0.7571934781441011  1.0000
  Br  Br5       1.0  0.24280642304357533  0.7571935692557489  0.24280646862987595  1.0000
  Br  Br6       1.0  0.7571935651638084  0.24280638719090059  0.757193564975081  1.0000
