data_image0
_chemical_formula_structural       Pb2NiO6
_chemical_formula_sum              "Pb2 Ni1 O6"
_cell_length_a       5.403043801383541
_cell_length_b       5.403043649306653
_cell_length_c       5.4030437069306085
_cell_angle_alpha    59.999999136112045
_cell_angle_beta     60.00000048973416
_cell_angle_gamma    60.000001026006

_space_group_name_H-M_alt    "P 1"
_space_group_IT_number       1

loop_
  _space_group_symop_operation_xyz
  'x, y, z'

loop_
  _atom_site_type_symbol
  _atom_site_label
  _atom_site_symmetry_multiplicity
  _atom_site_fract_x
  _atom_site_fract_y
  _atom_site_fract_z
  _atom_site_occupancy
  Pb  Pb1       1.0  0.25000002990939657  0.24999997780975253  0.2500000739508989  1.0000
  Pb  Pb2       1.0  0.7499999913534977  0.7500000490344467  0.7499999874387931  1.0000
  Ni  Ni1       1.0  0.9999999335970993  4.533536683624644e-08  9.937258176973555e-08  1.0000
  O   O1        1.0  0.23794867780644807  0.2379486505728638  0.7620513038363596  1.0000
  O   O2        1.0  0.7620512784573276  0.7620513853384084  0.23794869482973163  1.0000
  O   O3        1.0  0.7620513612940908  0.23794856320884725  0.23794866236623585  1.0000
  O   O4        1.0  0.23794874219841244  0.7620512233579008  0.7620512855632791  1.0000
  O   O5        1.0  0.23794865764933487  0.7620513758258207  0.2379485876983906  1.0000
  O   O6        1.0  0.762051316185548  0.23794870995435782  0.7620513087677739  1.0000
