data_image0
_chemical_formula_structural       Pb2NbO6
_chemical_formula_sum              "Pb2 Nb1 O6"
_cell_length_a       5.785488184917337
_cell_length_b       5.7854883308042435
_cell_length_c       5.785488576788789
_cell_angle_alpha    59.99999862640252
_cell_angle_beta     59.9999975959719
_cell_angle_gamma    59.999999355672756

_space_group_name_H-M_alt    "P 1"
_space_group_IT_number       1

loop_
  _space_group_symop_operation_xyz
  'x, y, z'

loop_
  _atom_site_type_symbol
  _atom_site_label
  _atom_site_symmetry_multiplicity
  _atom_site_fract_x
  _atom_site_fract_y
  _atom_site_fract_z
  _atom_site_occupancy
  Pb  Pb1       1.0  0.2500000343989705  0.2500000980956803  0.25000000119357463  1.0000
  Pb  Pb2       1.0  0.7499999967559664  0.7500000148528506  0.7500000599697548  1.0000
  Nb  Nb1       1.0  7.658618109912761e-08  1.3548324347005215e-07  0.9999997211190385  1.0000
  O   O1        1.0  0.24512849792508565  0.2451284450384245  0.7548714804344874  1.0000
  O   O2        1.0  0.7548714402340847  0.7548714858544975  0.24512847108439356  1.0000
  O   O3        1.0  0.7548715170916015  0.24512841953362186  0.24512850402657363  1.0000
  O   O4        1.0  0.24512842306342505  0.7548715113593004  0.7548716418106407  1.0000
  O   O5        1.0  0.24512847539955732  0.7548714706329869  0.24512852082065328  1.0000
  O   O6        1.0  0.754871507958676  0.24512846237686114  0.7548716438395943  1.0000
