data_image0
_chemical_formula_structural       Pb2OsS6
_chemical_formula_sum              "Pb2 Os1 S6"
_cell_length_a       6.448625382118869
_cell_length_b       6.448625317792797
_cell_length_c       6.448625368890002
_cell_angle_alpha    59.99999938016691
_cell_angle_beta     59.99999906517677
_cell_angle_gamma    60.00000049451926

_space_group_name_H-M_alt    "P 1"
_space_group_IT_number       1

loop_
  _space_group_symop_operation_xyz
  'x, y, z'

loop_
  _atom_site_type_symbol
  _atom_site_label
  _atom_site_symmetry_multiplicity
  _atom_site_fract_x
  _atom_site_fract_y
  _atom_site_fract_z
  _atom_site_occupancy
  Pb  Pb1       1.0  0.24999999085652097  0.24999999789525829  0.24999999461091785  1.0000
  Pb  Pb2       1.0  0.7500000054337109  0.7499999917865413  0.7500000071182482  1.0000
  Os  Os1       1.0  0.9999999918972412  0.9999999867053616  0.9999999781336188  1.0000
  S   S1        1.0  0.2551402845885552  0.2551402899650782  0.7448597118228746  1.0000
  S   S2        1.0  0.7448597163318247  0.7448597073136576  0.25514026828556857  1.0000
  S   S3        1.0  0.7448597675680809  0.25514027348626467  0.2551402831173677  1.0000
  S   S4        1.0  0.2551403136413893  0.7448596763116209  0.7448597147027529  1.0000
  S   S5        1.0  0.2551402637412598  0.744859733419051  0.25514034466867425  1.0000
  S   S6        1.0  0.7448596884880213  0.25514031323976927  0.7448597079790262  1.0000
