data_image0
_chemical_formula_structural       Pb2OsO6
_chemical_formula_sum              "Pb2 Os1 O6"
_cell_length_a       5.748681508487846
_cell_length_b       5.748681615363983
_cell_length_c       5.748681639022565
_cell_angle_alpha    60.00000021620497
_cell_angle_beta     60.000000516541924
_cell_angle_gamma    60.0000015556155

_space_group_name_H-M_alt    "P 1"
_space_group_IT_number       1

loop_
  _space_group_symop_operation_xyz
  'x, y, z'

loop_
  _atom_site_type_symbol
  _atom_site_label
  _atom_site_symmetry_multiplicity
  _atom_site_fract_x
  _atom_site_fract_y
  _atom_site_fract_z
  _atom_site_occupancy
  Pb  Pb1       1.0  0.2500000344915507  0.2499999918385893  0.24999998824124658  1.0000
  Pb  Pb2       1.0  0.750000038589098  0.7500000074729604  0.7499999411787467  1.0000
  Os  Os1       1.0  0.9999999534567577  0.9999999829561631  2.6574951312570757e-08  1.0000
  O   O1        1.0  0.23032795683999696  0.23032791641516348  0.769672066362428  1.0000
  O   O2        1.0  0.7696720597760773  0.7696720594611106  0.2303279778072484  1.0000
  O   O3        1.0  0.7696720246565664  0.23032793372604635  0.2303279445914909  1.0000
  O   O4        1.0  0.23032793297801604  0.7696720804988589  0.7696720646668543  1.0000
  O   O5        1.0  0.23032791967574365  0.7696720937110473  0.23032792553511364  1.0000
  O   O6        1.0  0.7696720712736369  0.23032792903577662  0.7696720645444028  1.0000
