data_image0
_chemical_formula_structural       Pb2PtO6
_chemical_formula_sum              "Pb2 Pt1 O6"
_cell_length_a       5.660472059128406
_cell_length_b       5.660472122618606
_cell_length_c       5.660472392083026
_cell_angle_alpha    59.99999975893679
_cell_angle_beta     59.999999614935724
_cell_angle_gamma    60.00000058352134

_space_group_name_H-M_alt    "P 1"
_space_group_IT_number       1

loop_
  _space_group_symop_operation_xyz
  'x, y, z'

loop_
  _atom_site_type_symbol
  _atom_site_label
  _atom_site_symmetry_multiplicity
  _atom_site_fract_x
  _atom_site_fract_y
  _atom_site_fract_z
  _atom_site_occupancy
  Pb  Pb1       1.0  0.24999999764119576  0.24999998782634686  0.24999996043504918  1.0000
  Pb  Pb2       1.0  0.7499999977034586  0.7499999980979172  0.7499999958701866  1.0000
  Pt  Pt1       1.0  2.5695439975061048e-08  0.999999971872164  1.1816020069079732e-08  1.0000
  O   O1        1.0  0.24195688081229327  0.2419568570761818  0.7580431660132674  1.0000
  O   O2        1.0  0.7580430372197879  0.7580431894311147  0.24195692055469165  1.0000
  O   O3        1.0  0.7580432475470764  0.24195678886805866  0.2419567874276097  1.0000
  O   O4        1.0  0.24195683879222676  0.7580431321458148  0.7580431664353192  1.0000
  O   O5        1.0  0.24195683980320112  0.7580431598419706  0.241956827893363  1.0000
  O   O6        1.0  0.7580431288560716  0.2419569061384434  0.7580431759252434  1.0000
