data_image0
_chemical_formula_structural       Pb2PSe6
_chemical_formula_sum              "Pb2 P1 Se6"
_cell_length_a       6.690445749151504
_cell_length_b       6.69044575332986
_cell_length_c       6.690445802604459
_cell_angle_alpha    60.00000018206467
_cell_angle_beta     60.00000021432858
_cell_angle_gamma    60.0000005737127

_space_group_name_H-M_alt    "P 1"
_space_group_IT_number       1

loop_
  _space_group_symop_operation_xyz
  'x, y, z'

loop_
  _atom_site_type_symbol
  _atom_site_label
  _atom_site_symmetry_multiplicity
  _atom_site_fract_x
  _atom_site_fract_y
  _atom_site_fract_z
  _atom_site_occupancy
  Pb  Pb1       1.0  0.25000000465500094  0.24999995964870392  0.2500000313194404  1.0000
  Pb  Pb2       1.0  0.7500000119937972  0.7499999521696255  0.7500000209654495  1.0000
  P   P1        1.0  2.7300237292860764e-08  1.6475290799368792e-08  0.9999999990375981  1.0000
  Se  Se1       1.0  0.2465636636024468  0.24656371893256188  0.7534362980709641  1.0000
  Se  Se2       1.0  0.7534362680228107  0.7534362770928078  0.24656372323413311  1.0000
  Se  Se3       1.0  0.7534363059787306  0.24656371701560603  0.2465637005347204  1.0000
  Se  Se4       1.0  0.24656371659548454  0.7534363064685816  0.7534362705345015  1.0000
  Se  Se5       1.0  0.24656368185072228  0.7534363360592391  0.24656367895947662  1.0000
  Se  Se6       1.0  0.7534363184782843  0.24656370756141507  0.7534362886801104  1.0000
