data_image0
_chemical_formula_structural       Pb2PdCl6
_chemical_formula_sum              "Pb2 Pd1 Cl6"
_cell_length_a       6.856088834515489
_cell_length_b       6.856088596489814
_cell_length_c       6.856088843865821
_cell_angle_alpha    59.99999772482925
_cell_angle_beta     59.99999904771624
_cell_angle_gamma    59.99999826243145

_space_group_name_H-M_alt    "P 1"
_space_group_IT_number       1

loop_
  _space_group_symop_operation_xyz
  'x, y, z'

loop_
  _atom_site_type_symbol
  _atom_site_label
  _atom_site_symmetry_multiplicity
  _atom_site_fract_x
  _atom_site_fract_y
  _atom_site_fract_z
  _atom_site_occupancy
  Pb  Pb1       1.0  0.24999994295754432  0.25000009874624596  0.24999995177170142  1.0000
  Pb  Pb2       1.0  0.7500000004449086  0.7499999836255675  0.7500000746084207  1.0000
  Pd  Pd1       1.0  1.1993707192961417e-08  0.9999999892818333  1.0146125675718978e-07  1.0000
  Cl  Cl1       1.0  0.24538264294495474  0.24538261560161906  0.7546174102314304  1.0000
  Cl  Cl2       1.0  0.7546173073665668  0.7546173399385658  0.24538265569016735  1.0000
  Cl  Cl3       1.0  0.7546173592586314  0.24538267578183395  0.24538271411537785  1.0000
  Cl  Cl4       1.0  0.24538264464070922  0.7546172958356002  0.7546172440458088  1.0000
  Cl  Cl5       1.0  0.24538276318860092  0.7546173432065763  0.2453826471369615  1.0000
  Cl  Cl6       1.0  0.7546173315376948  0.2453826641380779  0.7546171996147385  1.0000
