data_image0
_chemical_formula_structural       Pb2PO6
_chemical_formula_sum              "Pb2 P1 O6"
_cell_length_a       5.203567943334638
_cell_length_b       5.203568059544756
_cell_length_c       5.203568049347044
_cell_angle_alpha    59.999999768721295
_cell_angle_beta     59.99999981464191
_cell_angle_gamma    60.00000060582616

_space_group_name_H-M_alt    "P 1"
_space_group_IT_number       1

loop_
  _space_group_symop_operation_xyz
  'x, y, z'

loop_
  _atom_site_type_symbol
  _atom_site_label
  _atom_site_symmetry_multiplicity
  _atom_site_fract_x
  _atom_site_fract_y
  _atom_site_fract_z
  _atom_site_occupancy
  Pb  Pb1       1.0  0.2500000225416669  0.24999996687980516  0.2499999951459809  1.0000
  Pb  Pb2       1.0  0.7500000272319906  0.7500000018469495  0.7499999896223295  1.0000
  P   P1        1.0  0.9999999765095535  0.9999999905853456  0.9999999914696927  1.0000
  O   O1        1.0  0.2340189840363701  0.23401893676016633  0.7659810439111312  1.0000
  O   O2        1.0  0.7659810401623938  0.7659810154909431  0.2340189599606901  1.0000
  O   O3        1.0  0.7659810407977838  0.23401892162426893  0.23401898150275008  1.0000
  O   O4        1.0  0.23401893702384435  0.7659810965294209  0.7659810029975572  1.0000
  O   O5        1.0  0.23401892057178267  0.7659810781142176  0.23401898135545435  1.0000
  O   O6        1.0  0.7659810409319037  0.23401894239313567  0.7659810351098497  1.0000
