data_image0
_chemical_formula_structural       Pb2PtBr6
_chemical_formula_sum              "Pb2 Pt1 Br6"
_cell_length_a       7.283774993053558
_cell_length_b       7.283775085903174
_cell_length_c       7.283774929341639
_cell_angle_alpha    59.9999999050551
_cell_angle_beta     60.00000016641352
_cell_angle_gamma    59.9999998645309

_space_group_name_H-M_alt    "P 1"
_space_group_IT_number       1

loop_
  _space_group_symop_operation_xyz
  'x, y, z'

loop_
  _atom_site_type_symbol
  _atom_site_label
  _atom_site_symmetry_multiplicity
  _atom_site_fract_x
  _atom_site_fract_y
  _atom_site_fract_z
  _atom_site_occupancy
  Pb  Pb1       1.0  0.24999999230966896  0.2500000044750701  0.2500000019571218  1.0000
  Pb  Pb2       1.0  0.7500000192679185  0.7500000100622705  0.7499999493146888  1.0000
  Pt  Pt1       1.0  2.719952788291945e-10  1.3451759743761289e-08  0.9999999505777738  1.0000
  Br  Br1       1.0  0.24334339730505636  0.2433433970365491  0.7566565902279262  1.0000
  Br  Br2       1.0  0.7566566188691151  0.7566565704196335  0.24334341111737556  1.0000
  Br  Br3       1.0  0.7566565837396753  0.24334341753962604  0.24334341765737805  1.0000
  Br  Br4       1.0  0.24334340630029624  0.7566565902718341  0.756656653460595  1.0000
  Br  Br5       1.0  0.2433433651630536  0.7566566014492814  0.24334338566200553  1.0000
  Br  Br6       1.0  0.7566566272150426  0.24334339459188975  0.7566566366283853  1.0000
