data_image0
_chemical_formula_structural       Pb2PtCl6
_chemical_formula_sum              "Pb2 Pt1 Cl6"
_cell_length_a       6.996380549044768
_cell_length_b       6.996380671965837
_cell_length_c       6.99638052523927
_cell_angle_alpha    59.999999667697054
_cell_angle_beta     60.000000188616404
_cell_angle_gamma    59.99999820106535

_space_group_name_H-M_alt    "P 1"
_space_group_IT_number       1

loop_
  _space_group_symop_operation_xyz
  'x, y, z'

loop_
  _atom_site_type_symbol
  _atom_site_label
  _atom_site_symmetry_multiplicity
  _atom_site_fract_x
  _atom_site_fract_y
  _atom_site_fract_z
  _atom_site_occupancy
  Pb  Pb1       1.0  0.2499999851275376  0.24999995152028104  0.24999998805678686  1.0000
  Pb  Pb2       1.0  0.7500000389192716  0.749999945588955  0.7499999169086681  1.0000
  Pt  Pt1       1.0  2.4791571590597615e-07  0.9999998949675545  0.9999999700083696  1.0000
  Cl  Cl1       1.0  0.24013280989397373  0.2401329410841241  0.759867130613927  1.0000
  Cl  Cl2       1.0  0.7598670566758265  0.7598671363308013  0.24013293445444384  1.0000
  Cl  Cl3       1.0  0.7598671868885243  0.24013284863806997  0.24013285399058287  1.0000
  Cl  Cl4       1.0  0.24013273257783238  0.7598672532844236  0.7598671537946892  1.0000
  Cl  Cl5       1.0  0.2401327668587791  0.7598671789542124  0.2401329245339542  1.0000
  Cl  Cl6       1.0  0.7598671710969597  0.24013284769503215  0.7598671345122198  1.0000
