data_image0
_chemical_formula_structural       Pb2PdSe6
_chemical_formula_sum              "Pb2 Pd1 Se6"
_cell_length_a       6.8541571363731
_cell_length_b       6.854157050226213
_cell_length_c       6.854157102809793
_cell_angle_alpha    59.9999994324952
_cell_angle_beta     60.00000013879256
_cell_angle_gamma    59.999998961682664

_space_group_name_H-M_alt    "P 1"
_space_group_IT_number       1

loop_
  _space_group_symop_operation_xyz
  'x, y, z'

loop_
  _atom_site_type_symbol
  _atom_site_label
  _atom_site_symmetry_multiplicity
  _atom_site_fract_x
  _atom_site_fract_y
  _atom_site_fract_z
  _atom_site_occupancy
  Pb  Pb1       1.0  0.25000001196314214  0.2500000672842444  0.2499999697475562  1.0000
  Pb  Pb2       1.0  0.7499999594865836  0.7500000267400284  0.7499999226598605  1.0000
  Pd  Pd1       1.0  5.36059318534976e-09  0.9999999839182206  5.934243134362151e-08  1.0000
  Se  Se1       1.0  0.2594094213254236  0.25940940007821667  0.7405906144891554  1.0000
  Se  Se2       1.0  0.7405905748688937  0.7405905742261445  0.25940942899269237  1.0000
  Se  Se3       1.0  0.7405906144763249  0.2594094281812583  0.25940938770865957  1.0000
  Se  Se4       1.0  0.2594094091661705  0.7405905496968315  0.7405906037880199  1.0000
  Se  Se5       1.0  0.25940941168281484  0.7405905728083365  0.2594094303250333  1.0000
  Se  Se6       1.0  0.7405905908589534  0.259409392561703  0.7405905940246895  1.0000
