data_image0
_chemical_formula_structural       Pb2PtF6
_chemical_formula_sum              "Pb2 Pt1 F6"
_cell_length_a       5.940421865021136
_cell_length_b       5.940421853603847
_cell_length_c       5.940421621213424
_cell_angle_alpha    59.99999716260537
_cell_angle_beta     59.99999921742696
_cell_angle_gamma    59.999997284637594

_space_group_name_H-M_alt    "P 1"
_space_group_IT_number       1

loop_
  _space_group_symop_operation_xyz
  'x, y, z'

loop_
  _atom_site_type_symbol
  _atom_site_label
  _atom_site_symmetry_multiplicity
  _atom_site_fract_x
  _atom_site_fract_y
  _atom_site_fract_z
  _atom_site_occupancy
  Pb  Pb1       1.0  0.2500001513034789  0.24999993207655197  0.2500000204270489  1.0000
  Pb  Pb2       1.0  0.7499999034167225  0.7500000889930152  0.7500000369585438  1.0000
  Pt  Pt1       1.0  4.339018751874376e-09  1.0308565340095569e-08  7.347855301937879e-08  1.0000
  F   F1        1.0  0.24607508631598368  0.24607511084064637  0.7539248424191332  1.0000
  F   F2        1.0  0.7539249252093859  0.7539248648712285  0.24607503198612715  1.0000
  F   F3        1.0  0.7539247643278467  0.246075225481141  0.246075173580124  1.0000
  F   F4        1.0  0.24607511173767627  0.7539248883655505  0.7539247853401412  1.0000
  F   F5        1.0  0.24607526074032213  0.7539247657854927  0.24607511391153078  1.0000
  F   F6        1.0  0.7539248272233554  0.24607510890240755  0.7539248283381772  1.0000
