data_image0
_chemical_formula_structural       Pb2PdO6
_chemical_formula_sum              "Pb2 Pd1 O6"
_cell_length_a       5.687097009972856
_cell_length_b       5.687096954621755
_cell_length_c       5.687097205665136
_cell_angle_alpha    60.00000005532938
_cell_angle_beta     59.999999682923175
_cell_angle_gamma    60.000000777789

_space_group_name_H-M_alt    "P 1"
_space_group_IT_number       1

loop_
  _space_group_symop_operation_xyz
  'x, y, z'

loop_
  _atom_site_type_symbol
  _atom_site_label
  _atom_site_symmetry_multiplicity
  _atom_site_fract_x
  _atom_site_fract_y
  _atom_site_fract_z
  _atom_site_occupancy
  Pb  Pb1       1.0  0.24999999498036216  0.24999994974668613  0.25000002979503166  1.0000
  Pb  Pb2       1.0  0.7500000015289148  0.7500000796699281  0.7499999887350103  1.0000
  Pd  Pd1       1.0  0.9999999763320799  3.445680230330623e-08  0.9999999717467974  1.0000
  O   O1        1.0  0.23675014214851053  0.2367500410302094  0.7632498834616397  1.0000
  O   O2        1.0  0.7632499423043376  0.763249919472799  0.23675004818530276  1.0000
  O   O3        1.0  0.7632499620396446  0.2367500559989351  0.23675011513663063  1.0000
  O   O4        1.0  0.2367500107208115  0.763249941114427  0.7632499824120699  1.0000
  O   O5        1.0  0.23675003475821318  0.7632499229348051  0.2367500882878427  1.0000
  O   O6        1.0  0.7632499338394371  0.2367500440288528  0.7632499173984025  1.0000
