data_image0
_chemical_formula_structural       Pb2ReTe6
_chemical_formula_sum              "Pb2 Re1 Te6"
_cell_length_a       7.341550429616301
_cell_length_b       7.341550462379512
_cell_length_c       7.341550402705433
_cell_angle_alpha    59.999999708560516
_cell_angle_beta     60.000000064696714
_cell_angle_gamma    59.99999900867779

_space_group_name_H-M_alt    "P 1"
_space_group_IT_number       1

loop_
  _space_group_symop_operation_xyz
  'x, y, z'

loop_
  _atom_site_type_symbol
  _atom_site_label
  _atom_site_symmetry_multiplicity
  _atom_site_fract_x
  _atom_site_fract_y
  _atom_site_fract_z
  _atom_site_occupancy
  Pb  Pb1       1.0  0.25000001431433166  0.2499999587102243  0.24999999579263096  1.0000
  Pb  Pb2       1.0  0.7500000057647311  0.7500000112578996  0.7499999779046042  1.0000
  Re  Re1       1.0  0.9999999231385517  0.9999999616305416  3.173536154678215e-08  1.0000
  Te  Te1       1.0  0.2567912394061771  0.2567912347702832  0.7432087586218638  1.0000
  Te  Te2       1.0  0.7432088209612586  0.7432088219461831  0.256791158367564  1.0000
  Te  Te3       1.0  0.7432087773506698  0.25679120944681394  0.25679121893659823  1.0000
  Te  Te4       1.0  0.25679123494328526  0.7432087838766327  0.7432088082704841  1.0000
  Te  Te5       1.0  0.2567912067402701  0.7432087985400283  0.2567912051190938  1.0000
  Te  Te6       1.0  0.7432087766703092  0.2567912248116911  0.7432088433093017  1.0000
