data_image0
_chemical_formula_structural       Pb2RhS6
_chemical_formula_sum              "Pb2 Rh1 S6"
_cell_length_a       6.4225979986929485
_cell_length_b       6.422598153072986
_cell_length_c       6.422597966349154
_cell_angle_alpha    59.99999930292287
_cell_angle_beta     60.00000003309008
_cell_angle_gamma    59.999999140621945

_space_group_name_H-M_alt    "P 1"
_space_group_IT_number       1

loop_
  _space_group_symop_operation_xyz
  'x, y, z'

loop_
  _atom_site_type_symbol
  _atom_site_label
  _atom_site_symmetry_multiplicity
  _atom_site_fract_x
  _atom_site_fract_y
  _atom_site_fract_z
  _atom_site_occupancy
  Pb  Pb1       1.0  0.2500000135394807  0.2500000193120419  0.25000001083367795  1.0000
  Pb  Pb2       1.0  0.7500000458313609  0.7500000045420705  0.7500000005395187  1.0000
  Rh  Rh1       1.0  0.9999999945347496  0.9999999408851535  0.999999955996935  1.0000
  S   S1        1.0  0.25454369265605953  0.25454367458245375  0.7454563259573296  1.0000
  S   S2        1.0  0.7454563302307693  0.7454563454577984  0.2545436837667712  1.0000
  S   S3        1.0  0.7454563048099524  0.25454370068528553  0.2545436943770863  1.0000
  S   S4        1.0  0.2545436322869206  0.7454563555866482  0.7454563416831533  1.0000
  S   S5        1.0  0.2545436563225625  0.7454563016417084  0.2545436937995518  1.0000
  S   S6        1.0  0.7454563393064406  0.2545436707252805  0.7454562957810078  1.0000
