data_image0
_chemical_formula_structural       Pb2RuS6
_chemical_formula_sum              "Pb2 Ru1 S6"
_cell_length_a       6.391406246466446
_cell_length_b       6.39140622709243
_cell_length_c       6.39140605750178
_cell_angle_alpha    60.000000766282966
_cell_angle_beta     60.000000826964495
_cell_angle_gamma    60.00000020574383

_space_group_name_H-M_alt    "P 1"
_space_group_IT_number       1

loop_
  _space_group_symop_operation_xyz
  'x, y, z'

loop_
  _atom_site_type_symbol
  _atom_site_label
  _atom_site_symmetry_multiplicity
  _atom_site_fract_x
  _atom_site_fract_y
  _atom_site_fract_z
  _atom_site_occupancy
  Pb  Pb1       1.0  0.25000004454147334  0.25000000635492936  0.24999997894505258  1.0000
  Pb  Pb2       1.0  0.7500000264123933  0.7499999884049976  0.7499999744790476  1.0000
  Ru  Ru1       1.0  8.17529890575322e-09  1.3413658466033524e-08  1.7223289067387485e-09  1.0000
  S   S1        1.0  0.2568532546085713  0.2568532472363517  0.7431467348774207  1.0000
  S   S2        1.0  0.7431466737486956  0.7431467091988372  0.2568533137011516  1.0000
  S   S3        1.0  0.7431467661282659  0.25685323252977027  0.2568532297843442  1.0000
  S   S4        1.0  0.25685323062474075  0.7431468005548956  0.743146750965422  1.0000
  S   S5        1.0  0.25685321712824444  0.7431467836456437  0.2568532210489194  1.0000
  S   S6        1.0  0.7431467778369198  0.25685321686299434  0.7431467831411859  1.0000
