data_image0
_chemical_formula_structural       Pb2RuO6
_chemical_formula_sum              "Pb2 Ru1 O6"
_cell_length_a       5.686092161419097
_cell_length_b       5.686091693349505
_cell_length_c       5.686092143627176
_cell_angle_alpha    60.000001693062046
_cell_angle_beta     60.0000008250257
_cell_angle_gamma    60.00000178337499

_space_group_name_H-M_alt    "P 1"
_space_group_IT_number       1

loop_
  _space_group_symop_operation_xyz
  'x, y, z'

loop_
  _atom_site_type_symbol
  _atom_site_label
  _atom_site_symmetry_multiplicity
  _atom_site_fract_x
  _atom_site_fract_y
  _atom_site_fract_z
  _atom_site_occupancy
  Pb  Pb1       1.0  0.25000001046246434  0.2499999936180301  0.24999995790922036  1.0000
  Pb  Pb2       1.0  0.7500000259708619  0.7500000519338158  0.7499999763142022  1.0000
  Ru  Ru1       1.0  2.4963735422230048e-08  4.307863844376062e-09  1.7020388311893602e-08  1.0000
  O   O1        1.0  0.23219095570001427  0.2321909861481104  0.7678090249611199  1.0000
  O   O2        1.0  0.7678090738421844  0.767808994785809  0.23219095381021296  1.0000
  O   O3        1.0  0.7678090116069872  0.23219097182846105  0.23219098262362436  1.0000
  O   O4        1.0  0.232190936480162  0.7678089854122176  0.7678090680673004  1.0000
  O   O5        1.0  0.23219095606712328  0.7678090489979018  0.2321909582065497  1.0000
  O   O6        1.0  0.7678090163678349  0.23219094485960207  0.767809054967351  1.0000
