data_image0
_chemical_formula_structural       Pb2ReS6
_chemical_formula_sum              "Pb2 Re1 S6"
_cell_length_a       6.507019903190542
_cell_length_b       6.507019797999747
_cell_length_c       6.507019878501795
_cell_angle_alpha    60.000000016213384
_cell_angle_beta     60.000000661496884
_cell_angle_gamma    60.000000941315875

_space_group_name_H-M_alt    "P 1"
_space_group_IT_number       1

loop_
  _space_group_symop_operation_xyz
  'x, y, z'

loop_
  _atom_site_type_symbol
  _atom_site_label
  _atom_site_symmetry_multiplicity
  _atom_site_fract_x
  _atom_site_fract_y
  _atom_site_fract_z
  _atom_site_occupancy
  Pb  Pb1       1.0  0.2500000086064824  0.2500000070864224  0.25000001867403354  1.0000
  Pb  Pb2       1.0  0.7499999690155107  0.7500000532564992  0.7500000069533799  1.0000
  Re  Re1       1.0  1.0773388243052807e-08  0.9999999623561968  3.802403653403977e-08  1.0000
  S   S1        1.0  0.25394226399232706  0.25394225772612644  0.7460577427529987  1.0000
  S   S2        1.0  0.7460577594818629  0.7460577555620415  0.25394224659244913  1.0000
  S   S3        1.0  0.7460577240053037  0.25394224994509884  0.2539422917607602  1.0000
  S   S4        1.0  0.2539422596231292  0.7460577125239339  0.7460577121810971  1.0000
  S   S5        1.0  0.25394225030752476  0.7460577431443353  0.2539422677677542  1.0000
  S   S6        1.0  0.7460577474988063  0.2539422513219305  0.7460576869609069  1.0000
