data_image0
_chemical_formula_structural       Pb2ReO6
_chemical_formula_sum              "Pb2 Re1 O6"
_cell_length_a       5.770910368976693
_cell_length_b       5.770910497549663
_cell_length_c       5.770910485118557
_cell_angle_alpha    60.0000001150817
_cell_angle_beta     60.000000228404595
_cell_angle_gamma    60.00000029075386

_space_group_name_H-M_alt    "P 1"
_space_group_IT_number       1

loop_
  _space_group_symop_operation_xyz
  'x, y, z'

loop_
  _atom_site_type_symbol
  _atom_site_label
  _atom_site_symmetry_multiplicity
  _atom_site_fract_x
  _atom_site_fract_y
  _atom_site_fract_z
  _atom_site_occupancy
  Pb  Pb1       1.0  0.24999996428228977  0.24999999250118718  0.25000002813544886  1.0000
  Pb  Pb2       1.0  0.7500000200963917  0.74999994991401  0.7499999236753178  1.0000
  Re  Re1       1.0  0.9999999956340788  1.9100458773055144e-08  0.9999999978312176  1.0000
  O   O1        1.0  0.23344369655056307  0.23344372615635467  0.7665562876815711  1.0000
  O   O2        1.0  0.7665562984983868  0.7665562862938576  0.23344371734930977  1.0000
  O   O3        1.0  0.7665563192789016  0.23344371738779807  0.23344372356046547  1.0000
  O   O4        1.0  0.2334436893913887  0.7665563502415172  0.7665562817267702  1.0000
  O   O5        1.0  0.23344369153509117  0.7665562753760854  0.2334437342183331  1.0000
  O   O6        1.0  0.7665563079006043  0.23344368189502376  0.7665563083385284  1.0000
