data_image0
_chemical_formula_structural       Pb2SO6
_chemical_formula_sum              "Pb2 S1 O6"
_cell_length_a       5.35283929116194
_cell_length_b       5.352839361834524
_cell_length_c       5.352839187092045
_cell_angle_alpha    60.000001228313955
_cell_angle_beta     60.00000087407016
_cell_angle_gamma    60.00000252141842

_space_group_name_H-M_alt    "P 1"
_space_group_IT_number       1

loop_
  _space_group_symop_operation_xyz
  'x, y, z'

loop_
  _atom_site_type_symbol
  _atom_site_label
  _atom_site_symmetry_multiplicity
  _atom_site_fract_x
  _atom_site_fract_y
  _atom_site_fract_z
  _atom_site_occupancy
  Pb  Pb1       1.0  0.2500000184354742  0.2499999815585686  0.25000000379362086  1.0000
  Pb  Pb2       1.0  0.7500000017022876  0.7500000407728976  0.749999997607004  1.0000
  S   S1        1.0  1.5993747817254233e-08  0.9999999908478867  1.712902483987306e-08  1.0000
  O   O1        1.0  0.2241611448543509  0.22416112810075403  0.7758388292132028  1.0000
  O   O2        1.0  0.7758388334260263  0.7758388644863422  0.22416112765709867  1.0000
  O   O3        1.0  0.7758388225113442  0.2241611787129933  0.2241611488468893  1.0000
  O   O4        1.0  0.2241612000677505  0.7758387909938198  0.7758389094042425  1.0000
  O   O5        1.0  0.22416115071242593  0.7758387928349767  0.2241611941548882  1.0000
  O   O6        1.0  0.7758387699785282  0.2241611654316925  0.7758389039468786  1.0000
