data_image0
_chemical_formula_structural       Pb2SrCl6
_chemical_formula_sum              "Pb2 Sr1 Cl6"
_cell_length_a       7.21393246650359
_cell_length_b       7.213932296811643
_cell_length_c       7.213932394381662
_cell_angle_alpha    59.99999985270762
_cell_angle_beta     60.000000147458294
_cell_angle_gamma    59.99999928204985

_space_group_name_H-M_alt    "P 1"
_space_group_IT_number       1

loop_
  _space_group_symop_operation_xyz
  'x, y, z'

loop_
  _atom_site_type_symbol
  _atom_site_label
  _atom_site_symmetry_multiplicity
  _atom_site_fract_x
  _atom_site_fract_y
  _atom_site_fract_z
  _atom_site_occupancy
  Pb  Pb1       1.0  0.24999999905431108  0.24999991208367245  0.25000006722051177  1.0000
  Pb  Pb2       1.0  0.7499999476173945  0.7500000961738769  0.7499999771625505  1.0000
  Sr  Sr1       1.0  0.9999999423764785  1.2502600223963318e-17  0.9999999872255657  1.0000
  Cl  Cl1       1.0  0.2664413497458602  0.26644129896970514  0.7335586600218681  1.0000
  Cl  Cl2       1.0  0.7335587116874089  0.733558734754084  0.2664413059300535  1.0000
  Cl  Cl3       1.0  0.7335587083181284  0.2664412642743866  0.2664413379025385  1.0000
  Cl  Cl4       1.0  0.2664413096395303  0.7335587270056692  0.73355865714699  1.0000
  Cl  Cl5       1.0  0.26644129308034936  0.7335586928357251  0.2664413079954807  1.0000
  Cl  Cl6       1.0  0.7335587439076174  0.26644127976908794  0.7335586938075475  1.0000
