data_image0
_chemical_formula_structural       Pb2SnO6
_chemical_formula_sum              "Pb2 Sn1 O6"
_cell_length_a       5.739183210668715
_cell_length_b       5.739183509169271
_cell_length_c       5.739183480387717
_cell_angle_alpha    59.999999156226714
_cell_angle_beta     59.99999979997933
_cell_angle_gamma    60.000000599392585

_space_group_name_H-M_alt    "P 1"
_space_group_IT_number       1

loop_
  _space_group_symop_operation_xyz
  'x, y, z'

loop_
  _atom_site_type_symbol
  _atom_site_label
  _atom_site_symmetry_multiplicity
  _atom_site_fract_x
  _atom_site_fract_y
  _atom_site_fract_z
  _atom_site_occupancy
  Pb  Pb1       1.0  0.25000008394074136  0.24999990142298978  0.2500000671779379  1.0000
  Pb  Pb2       1.0  0.7500000559053275  0.7499999902256981  0.7500000101516101  1.0000
  Sn  Sn1       1.0  4.61530287423255e-08  6.402015450866538e-09  2.9479538733544397e-08  1.0000
  O   O1        1.0  0.2519642855377542  0.2519642451380994  0.7480356916911378  1.0000
  O   O2        1.0  0.7480355814523545  0.7480357468088454  0.251964306388485  1.0000
  O   O3        1.0  0.7480357195366747  0.25196429728781256  0.25196424010212987  1.0000
  O   O4        1.0  0.25196424209570806  0.7480357608133006  0.7480356845489047  1.0000
  O   O5        1.0  0.25196426808930855  0.7480357711644775  0.25196422699335413  1.0000
  O   O6        1.0  0.7480357111625289  0.25196431254470053  0.7480356830135532  1.0000
