data_image0
_chemical_formula_structural       Pb2SiS6
_chemical_formula_sum              "Pb2 Si1 S6"
_cell_length_a       6.475587864535674
_cell_length_b       6.475588145028952
_cell_length_c       6.475587982638255
_cell_angle_alpha    60.000001202180314
_cell_angle_beta     60.00000093600708
_cell_angle_gamma    60.000001506919766

_space_group_name_H-M_alt    "P 1"
_space_group_IT_number       1

loop_
  _space_group_symop_operation_xyz
  'x, y, z'

loop_
  _atom_site_type_symbol
  _atom_site_label
  _atom_site_symmetry_multiplicity
  _atom_site_fract_x
  _atom_site_fract_y
  _atom_site_fract_z
  _atom_site_occupancy
  Pb  Pb1       1.0  0.24999998437354862  0.24999999764206604  0.249999962984508  1.0000
  Pb  Pb2       1.0  0.7500000069399289  0.7499999759042635  0.7499999801974034  1.0000
  Si  Si1       1.0  1.2590281481859158e-08  0.9999999943260219  0.9999999424927024  1.0000
  S   S1        1.0  0.24802707469606575  0.24802703928014996  0.7519730110473292  1.0000
  S   S2        1.0  0.7519729791361603  0.7519729285922012  0.24802711373173666  1.0000
  S   S3        1.0  0.7519729672620655  0.24802704743750947  0.2480270218803909  1.0000
  S   S4        1.0  0.24802701497177568  0.7519730282404262  0.751972928824682  1.0000
  S   S5        1.0  0.24802705265627517  0.7519729666292033  0.24802699815713836  1.0000
  S   S6        1.0  0.7519729074967185  0.24802702015640832  0.75197302038861  1.0000
