data_image0
_chemical_formula_structural       Pb2SCl6
_chemical_formula_sum              "Pb2 S1 Cl6"
_cell_length_a       7.060553579265041
_cell_length_b       7.0605534522703985
_cell_length_c       7.060553792445091
_cell_angle_alpha    59.999999170358365
_cell_angle_beta     60.00000027861336
_cell_angle_gamma    59.99999914030801

_space_group_name_H-M_alt    "P 1"
_space_group_IT_number       1

loop_
  _space_group_symop_operation_xyz
  'x, y, z'

loop_
  _atom_site_type_symbol
  _atom_site_label
  _atom_site_symmetry_multiplicity
  _atom_site_fract_x
  _atom_site_fract_y
  _atom_site_fract_z
  _atom_site_occupancy
  Pb  Pb1       1.0  0.2500000448336409  0.2500000204575626  0.2500000142361881  1.0000
  Pb  Pb2       1.0  0.7500000403747543  0.7499999659680295  0.7499999958420265  1.0000
  S   S1        1.0  0.9999999709081061  6.765057508555443e-08  0.9999997994317639  1.0000
  Cl  Cl1       1.0  0.24867466054404105  0.24867464872595207  0.7513253403575312  1.0000
  Cl  Cl2       1.0  0.7513253464615729  0.7513253220879688  0.24867470388103333  1.0000
  Cl  Cl3       1.0  0.7513253203520359  0.24867464145375753  0.24867465804785155  1.0000
  Cl  Cl4       1.0  0.24867463410454815  0.7513253692566568  0.7513253826027444  1.0000
  Cl  Cl5       1.0  0.24867464195574754  0.7513253361054566  0.24867467346411087  1.0000
  Cl  Cl6       1.0  0.7513253219676299  0.2486746069543823  0.7513254543474751  1.0000
