data_image0
_chemical_formula_structural       Pb2ScI6
_chemical_formula_sum              "Pb2 Sc1 I6"
_cell_length_a       8.032448336492054
_cell_length_b       8.03244833793432
_cell_length_c       8.032448445275277
_cell_angle_alpha    59.999999501228835
_cell_angle_beta     60.000000108788946
_cell_angle_gamma    60.000000574453054

_space_group_name_H-M_alt    "P 1"
_space_group_IT_number       1

loop_
  _space_group_symop_operation_xyz
  'x, y, z'

loop_
  _atom_site_type_symbol
  _atom_site_label
  _atom_site_symmetry_multiplicity
  _atom_site_fract_x
  _atom_site_fract_y
  _atom_site_fract_z
  _atom_site_occupancy
  Pb  Pb1       1.0  0.24999999383693874  0.25000002123934034  0.2499999943232645  1.0000
  Pb  Pb2       1.0  0.7500000103937999  0.7499999813817018  0.7499999935121061  1.0000
  Sc  Sc1       1.0  4.144215813657491e-08  0.9999999878020275  0.9999998521682133  1.0000
  I   I1        1.0  0.2512127047480114  0.25121264936817267  0.7487872995805142  1.0000
  I   I2        1.0  0.7487873135243313  0.7487873456291363  0.25121267757621857  1.0000
  I   I3        1.0  0.7487872861493092  0.2512127094703817  0.2512127034672232  1.0000
  I   I4        1.0  0.2512125923746875  0.7487873770117252  0.7487874198264234  1.0000
  I   I5        1.0  0.2512126716206191  0.7487872990916727  0.25121267128559366  1.0000
  I   I6        1.0  0.7487873790774886  0.2512126288167834  0.7487873941648568  1.0000
