data_image0
_chemical_formula_structural       Pb2SBr6
_chemical_formula_sum              "Pb2 S1 Br6"
_cell_length_a       7.373239004000759
_cell_length_b       7.37323902440285
_cell_length_c       7.373239034828381
_cell_angle_alpha    60.00000049560858
_cell_angle_beta     60.000000072755505
_cell_angle_gamma    60.000001252811415

_space_group_name_H-M_alt    "P 1"
_space_group_IT_number       1

loop_
  _space_group_symop_operation_xyz
  'x, y, z'

loop_
  _atom_site_type_symbol
  _atom_site_label
  _atom_site_symmetry_multiplicity
  _atom_site_fract_x
  _atom_site_fract_y
  _atom_site_fract_z
  _atom_site_occupancy
  Pb  Pb1       1.0  0.24999998745419738  0.2500000040853264  0.25000001821078366  1.0000
  Pb  Pb2       1.0  0.7500000194847823  0.750000000628506  0.749999953222142  1.0000
  S   S1        1.0  0.9999999599634755  0.9999999368794299  2.7165938247051853e-08  1.0000
  Br  Br1       1.0  0.25375540206455977  0.2537554498016431  0.7462445748569696  1.0000
  Br  Br2       1.0  0.7462446025646652  0.7462445665396629  0.25375543531729006  1.0000
  Br  Br3       1.0  0.7462445822916354  0.25375540393967266  0.25375543379969273  1.0000
  Br  Br4       1.0  0.2537554298042443  0.7462446040962952  0.7462445578063241  1.0000
  Br  Br5       1.0  0.2537554488080836  0.746244581528162  0.2537554265429532  1.0000
  Br  Br6       1.0  0.7462445614367326  0.2537554414574145  0.7462445802138877  1.0000
