data_image0
_chemical_formula_structural       Pb2SeI6
_chemical_formula_sum              "Pb2 Se1 I6"
_cell_length_a       7.908174939830116
_cell_length_b       7.908175053664508
_cell_length_c       7.9081749558325996
_cell_angle_alpha    59.99999948163032
_cell_angle_beta     60.00000153047844
_cell_angle_gamma    59.9999987441878

_space_group_name_H-M_alt    "P 1"
_space_group_IT_number       1

loop_
  _space_group_symop_operation_xyz
  'x, y, z'

loop_
  _atom_site_type_symbol
  _atom_site_label
  _atom_site_symmetry_multiplicity
  _atom_site_fract_x
  _atom_site_fract_y
  _atom_site_fract_z
  _atom_site_occupancy
  Pb  Pb1       1.0  0.24999999634934977  0.24999999301646395  0.2500000473105741  1.0000
  Pb  Pb2       1.0  0.7500000095937099  0.7499999480752466  0.7500000270171103  1.0000
  Se  Se1       1.0  1.2890698824043653e-08  0.9999999876103405  2.883330856653582e-08  1.0000
  I   I1        1.0  0.26099180806246747  0.26099189317956734  0.7390081474335929  1.0000
  I   I2        1.0  0.7390081602991461  0.7390081299936343  0.2609918527989834  1.0000
  I   I3        1.0  0.7390081372861116  0.2609918627344991  0.26099183055691844  1.0000
  I   I4        1.0  0.26099187617774766  0.7390081434029216  0.7390081151779699  1.0000
  I   I5        1.0  0.26099185459254776  0.7390081544123306  0.2609918118848412  1.0000
  I   I6        1.0  0.7390081450215171  0.26099188889406655  0.7390081361001125  1.0000
