data_image0
_chemical_formula_structural       Pb2SnTe6
_chemical_formula_sum              "Pb2 Sn1 Te6"
_cell_length_a       7.5603349351317695
_cell_length_b       7.56033490532103
_cell_length_c       7.560334888214083
_cell_angle_alpha    60.00000025126964
_cell_angle_beta     59.99999990856354
_cell_angle_gamma    59.99999963542893

_space_group_name_H-M_alt    "P 1"
_space_group_IT_number       1

loop_
  _space_group_symop_operation_xyz
  'x, y, z'

loop_
  _atom_site_type_symbol
  _atom_site_label
  _atom_site_symmetry_multiplicity
  _atom_site_fract_x
  _atom_site_fract_y
  _atom_site_fract_z
  _atom_site_occupancy
  Pb  Pb1       1.0  0.24999998248756333  0.2500000390128386  0.24999999244734628  1.0000
  Pb  Pb2       1.0  0.7500000137566586  0.749999977721858  0.7500000072399196  1.0000
  Sn  Sn1       1.0  0.9999999976706534  0.9999999886602721  0.9999999962529954  1.0000
  Te  Te1       1.0  0.2712036599738287  0.2712036761117447  0.7287963372376325  1.0000
  Te  Te2       1.0  0.7287963458975131  0.7287963163235347  0.27120367772193815  1.0000
  Te  Te3       1.0  0.7287963332515702  0.27120367003218454  0.27120365753295783  1.0000
  Te  Te4       1.0  0.2712036766617267  0.7287963240230559  0.7287963493048841  1.0000
  Te  Te5       1.0  0.27120367338405854  0.728796324214793  0.27120365010741687  1.0000
  Te  Te6       1.0  0.7287963210708039  0.27120367956021446  0.7287963331459041  1.0000
