data_image0
_chemical_formula_structural       Pb2SeO6
_chemical_formula_sum              "Pb2 Se1 O6"
_cell_length_a       5.57751906621061
_cell_length_b       5.577518954121304
_cell_length_c       5.57751911457685
_cell_angle_alpha    59.99999855661713
_cell_angle_beta     59.999998295113265
_cell_angle_gamma    59.99999888331722

_space_group_name_H-M_alt    "P 1"
_space_group_IT_number       1

loop_
  _space_group_symop_operation_xyz
  'x, y, z'

loop_
  _atom_site_type_symbol
  _atom_site_label
  _atom_site_symmetry_multiplicity
  _atom_site_fract_x
  _atom_site_fract_y
  _atom_site_fract_z
  _atom_site_occupancy
  Pb  Pb1       1.0  0.2499998996038702  0.25000007058226675  0.25000006915800593  1.0000
  Pb  Pb2       1.0  0.7500000071608989  0.7500000009442731  0.7499998664560062  1.0000
  Se  Se1       1.0  0.9999996372565602  3.4914168603737415e-07  0.9999998633679331  1.0000
  O   O1        1.0  0.2334695003271056  0.2334693336414706  0.7665305985474731  1.0000
  O   O2        1.0  0.7665306830223944  0.7665304919487873  0.23346947772564164  1.0000
  O   O3        1.0  0.7665305982735574  0.23346938115092714  0.23346951802126276  1.0000
  O   O4        1.0  0.23346951322264162  0.7665304488310499  0.7665305901897319  1.0000
  O   O5        1.0  0.23346946352229572  0.7665305214095894  0.23346951899923987  1.0000
  O   O6        1.0  0.766530700545254  0.23346937444817772  0.7665305210236244  1.0000
