data_image0
_chemical_formula_structural       Pb2SnSe6
_chemical_formula_sum              "Pb2 Sn1 Se6"
_cell_length_a       7.0280201670747635
_cell_length_b       7.028020244362213
_cell_length_c       7.028020236133366
_cell_angle_alpha    60.0000003474172
_cell_angle_beta     59.99999999844624
_cell_angle_gamma    60.00000064819414

_space_group_name_H-M_alt    "P 1"
_space_group_IT_number       1

loop_
  _space_group_symop_operation_xyz
  'x, y, z'

loop_
  _atom_site_type_symbol
  _atom_site_label
  _atom_site_symmetry_multiplicity
  _atom_site_fract_x
  _atom_site_fract_y
  _atom_site_fract_z
  _atom_site_occupancy
  Pb  Pb1       1.0  0.24999990180923398  0.25000004653425484  0.25000005006377773  1.0000
  Pb  Pb2       1.0  0.7500000214666528  0.7499999653367814  0.7499999740120395  1.0000
  Sn  Sn1       1.0  3.249545114317739e-08  0.9999999616614836  7.190160036625917e-09  1.0000
  Se  Se1       1.0  0.26618124972886725  0.26618125950070404  0.7338187116352243  1.0000
  Se  Se2       1.0  0.7338187680776416  0.7338187349437338  0.26618123120230686  1.0000
  Se  Se3       1.0  0.7338187277763738  0.26618128491804993  0.26618129877881014  1.0000
  Se  Se4       1.0  0.266181305181553  0.7338187478649048  0.7338187268751913  1.0000
  Se  Se5       1.0  0.26618125704578577  0.7338187398294855  0.26618126821840377  1.0000
  Se  Se6       1.0  0.7338187402645618  0.2661812668135714  0.7338187186084212  1.0000
