data_image0
_chemical_formula_structural       Pb2SiTe6
_chemical_formula_sum              "Pb2 Si1 Te6"
_cell_length_a       7.337184401810383
_cell_length_b       7.337184385494226
_cell_length_c       7.337184383515358
_cell_angle_alpha    60.000000153260444
_cell_angle_beta     60.00000009133674
_cell_angle_gamma    60.00000009768904

_space_group_name_H-M_alt    "P 1"
_space_group_IT_number       1

loop_
  _space_group_symop_operation_xyz
  'x, y, z'

loop_
  _atom_site_type_symbol
  _atom_site_label
  _atom_site_symmetry_multiplicity
  _atom_site_fract_x
  _atom_site_fract_y
  _atom_site_fract_z
  _atom_site_occupancy
  Pb  Pb1       1.0  0.2499999989784351  0.2500000003625308  0.25000000446815823  1.0000
  Pb  Pb2       1.0  0.750000004995061  0.7499999910722118  0.7499999884867953  1.0000
  Si  Si1       1.0  3.554472438476088e-08  6.67692022850759e-09  0.9999999734374951  1.0000
  Te  Te1       1.0  0.25545079966670453  0.2554508151574072  0.7445491883158146  1.0000
  Te  Te2       1.0  0.7445491765354283  0.7445491746081054  0.2554508288998799  1.0000
  Te  Te3       1.0  0.7445491805462089  0.25545081667096287  0.2554508150391403  1.0000
  Te  Te4       1.0  0.2554508047166556  0.7445491931253105  0.744549206711697  1.0000
  Te  Te5       1.0  0.25545080873373577  0.7445491856644608  0.2554508060460646  1.0000
  Te  Te6       1.0  0.7445491892147149  0.2554508191241223  0.7445491859703325  1.0000
