data_image0
_chemical_formula_structural       Pb2ScF6
_chemical_formula_sum              "Pb2 Sc1 F6"
_cell_length_a       5.95724193294605
_cell_length_b       5.957242018770314
_cell_length_c       5.957241419126246
_cell_angle_alpha    59.999999635581254
_cell_angle_beta     59.99999969977527
_cell_angle_gamma    59.99999731612907

_space_group_name_H-M_alt    "P 1"
_space_group_IT_number       1

loop_
  _space_group_symop_operation_xyz
  'x, y, z'

loop_
  _atom_site_type_symbol
  _atom_site_label
  _atom_site_symmetry_multiplicity
  _atom_site_fract_x
  _atom_site_fract_y
  _atom_site_fract_z
  _atom_site_occupancy
  Pb  Pb1       1.0  0.2499999781361173  0.2500000780753098  0.24999999931713188  1.0000
  Pb  Pb2       1.0  0.7500000197581613  0.7499999258420651  0.7499999348909824  1.0000
  Sc  Sc1       1.0  4.583424081757853e-08  2.055893763775141e-09  0.9999998854089494  1.0000
  F   F1        1.0  0.23954350582539916  0.23954354156065438  0.7604564774862138  1.0000
  F   F2        1.0  0.7604564478403917  0.7604564438536877  0.23954355523283444  1.0000
  F   F3        1.0  0.7604564874429741  0.23954351497697485  0.23954350260904342  1.0000
  F   F4        1.0  0.23954341666640916  0.7604565958468064  0.7604565475782535  1.0000
  F   F5        1.0  0.2395435522464427  0.7604565004362108  0.23954350220688178  1.0000
  F   F6        1.0  0.7604565533334858  0.23954341302188917  0.7604565509638718  1.0000
