data_image0
_chemical_formula_structural       Pb2SrBr6
_chemical_formula_sum              "Pb2 Sr1 Br6"
_cell_length_a       7.619021062169727
_cell_length_b       7.61902110225388
_cell_length_c       7.619021341769705
_cell_angle_alpha    59.99999926569278
_cell_angle_beta     59.99999977268
_cell_angle_gamma    59.99999722732027

_space_group_name_H-M_alt    "P 1"
_space_group_IT_number       1

loop_
  _space_group_symop_operation_xyz
  'x, y, z'

loop_
  _atom_site_type_symbol
  _atom_site_label
  _atom_site_symmetry_multiplicity
  _atom_site_fract_x
  _atom_site_fract_y
  _atom_site_fract_z
  _atom_site_occupancy
  Pb  Pb1       1.0  0.24999993091879089  0.249999960103045  0.25000009225207953  1.0000
  Pb  Pb2       1.0  0.7500000881177706  0.7500000217676542  0.7499999704084794  1.0000
  Sr  Sr1       1.0  0.9999999678057209  1.9289800067064256e-08  4.1889861544549453e-08  1.0000
  Br  Br1       1.0  0.2677187346081327  0.26771878133855176  0.732281235221407  1.0000
  Br  Br2       1.0  0.7322812572850774  0.7322812728688951  0.2677187116546325  1.0000
  Br  Br3       1.0  0.7322813097124438  0.2677186832760205  0.2677186846761587  1.0000
  Br  Br4       1.0  0.26771867553812784  0.7322812953797131  0.7322812652344249  1.0000
  Br  Br5       1.0  0.2677187142937522  0.7322812971097449  0.2677187045777308  1.0000
  Br  Br6       1.0  0.7322813257004784  0.26771867190108767  0.7322812844711871  1.0000
