data_image0
_chemical_formula_structural       Pb2SeCl6
_chemical_formula_sum              "Pb2 Se1 Cl6"
_cell_length_a       7.159836526103617
_cell_length_b       7.159836533124072
_cell_length_c       7.159836539315039
_cell_angle_alpha    59.99999948147173
_cell_angle_beta     60.00000070912109
_cell_angle_gamma    60.00000019490954

_space_group_name_H-M_alt    "P 1"
_space_group_IT_number       1

loop_
  _space_group_symop_operation_xyz
  'x, y, z'

loop_
  _atom_site_type_symbol
  _atom_site_label
  _atom_site_symmetry_multiplicity
  _atom_site_fract_x
  _atom_site_fract_y
  _atom_site_fract_z
  _atom_site_occupancy
  Pb  Pb1       1.0  0.2500000910565651  0.24999998395208475  0.24999991698253987  1.0000
  Pb  Pb2       1.0  0.7499999745822623  0.7500000202793158  0.7500000098878362  1.0000
  Se  Se1       1.0  0.9999999710209078  0.9999999127605936  6.369596918469798e-08  1.0000
  Cl  Cl1       1.0  0.24729334699304406  0.24729330357731655  0.752706676730903  1.0000
  Cl  Cl2       1.0  0.7527066822038384  0.752706722891579  0.247293308918855  1.0000
  Cl  Cl3       1.0  0.7527066807589122  0.24729332636471912  0.2472933229593192  1.0000
  Cl  Cl4       1.0  0.24729329844281162  0.7527067001041764  0.7527066765145786  1.0000
  Cl  Cl5       1.0  0.24729328444379883  0.7527067351724491  0.24729328396631522  1.0000
  Cl  Cl6       1.0  0.7527066604989185  0.24729331182336517  0.7527067321503857  1.0000
