data_image0
_chemical_formula_structural       Pb2SnS6
_chemical_formula_sum              "Pb2 Sn1 S6"
_cell_length_a       6.687527885421047
_cell_length_b       6.687527951091858
_cell_length_c       6.687527713691584
_cell_angle_alpha    60.00000055252854
_cell_angle_beta     60.00000012232577
_cell_angle_gamma    60.00000007654784

_space_group_name_H-M_alt    "P 1"
_space_group_IT_number       1

loop_
  _space_group_symop_operation_xyz
  'x, y, z'

loop_
  _atom_site_type_symbol
  _atom_site_label
  _atom_site_symmetry_multiplicity
  _atom_site_fract_x
  _atom_site_fract_y
  _atom_site_fract_z
  _atom_site_occupancy
  Pb  Pb1       1.0  0.2500000955876792  0.24999992996129988  0.24999996421409915  1.0000
  Pb  Pb2       1.0  0.7499999239184957  0.7500000444466293  0.7500000215492499  1.0000
  Sn  Sn1       1.0  6.685151161452306e-08  0.9999999652036556  0.9999999645332444  1.0000
  S   S1        1.0  0.2625771271940092  0.26257715975516616  0.737422857782576  1.0000
  S   S2        1.0  0.7374228241349908  0.73742285860604  0.2625772028962001  1.0000
  S   S3        1.0  0.7374228376287308  0.262577140403313  0.26257710568632703  1.0000
  S   S4        1.0  0.26257712760022056  0.737422903597305  0.7374228559707591  1.0000
  S   S5        1.0  0.2625771736696255  0.7374229001453928  0.2625770970512945  1.0000
  S   S6        1.0  0.7374228233721575  0.2625771053961074  0.737422914283883  1.0000
