data_image0
_chemical_formula_structural       Pb2ScBr6
_chemical_formula_sum              "Pb2 Sc1 Br6"
_cell_length_a       7.407839581279362
_cell_length_b       7.407839523080246
_cell_length_c       7.407839715964043
_cell_angle_alpha    59.99999991867269
_cell_angle_beta     59.999998722598335
_cell_angle_gamma    60.00000066369549

_space_group_name_H-M_alt    "P 1"
_space_group_IT_number       1

loop_
  _space_group_symop_operation_xyz
  'x, y, z'

loop_
  _atom_site_type_symbol
  _atom_site_label
  _atom_site_symmetry_multiplicity
  _atom_site_fract_x
  _atom_site_fract_y
  _atom_site_fract_z
  _atom_site_occupancy
  Pb  Pb1       1.0  0.2500000456933547  0.2499999117488605  0.2500000041988767  1.0000
  Pb  Pb2       1.0  0.7499999799401513  0.75000001961575  0.7500000637253081  1.0000
  Sc  Sc1       1.0  5.976756175877219e-08  2.6452947747332774e-08  5.003430902663447e-08  1.0000
  Br  Br1       1.0  0.249345762414366  0.24934573608536872  0.7506542447413843  1.0000
  Br  Br2       1.0  0.7506541197029228  0.7506542283454215  0.2493457866131778  1.0000
  Br  Br3       1.0  0.7506541806463529  0.2493458499517036  0.24934579337420626  1.0000
  Br  Br4       1.0  0.24934583226311705  0.7506542037577807  0.7506541198453904  1.0000
  Br  Br5       1.0  0.24934584435206605  0.7506542244975475  0.24934577571477656  1.0000
  Br  Br6       1.0  0.7506541759108517  0.2493457977990637  0.7506541603339025  1.0000
