data_image0
_chemical_formula_structural       Pb2SnF6
_chemical_formula_sum              "Pb2 Sn1 F6"
_cell_length_a       6.05984234714877
_cell_length_b       6.059841857260825
_cell_length_c       6.059842171727766
_cell_angle_alpha    59.999997926228154
_cell_angle_beta     60.0000001531621
_cell_angle_gamma    59.99999898579317

_space_group_name_H-M_alt    "P 1"
_space_group_IT_number       1

loop_
  _space_group_symop_operation_xyz
  'x, y, z'

loop_
  _atom_site_type_symbol
  _atom_site_label
  _atom_site_symmetry_multiplicity
  _atom_site_fract_x
  _atom_site_fract_y
  _atom_site_fract_z
  _atom_site_occupancy
  Pb  Pb1       1.0  0.25000000193421845  0.24999994188188562  0.25000006453461776  1.0000
  Pb  Pb2       1.0  0.7499999627422912  0.7500000520070579  0.7499999847885671  1.0000
  Sn  Sn1       1.0  3.2413265207993985e-08  0.9999999656415736  0.9999998970094768  1.0000
  F   F1        1.0  0.24780203341768006  0.24780196809386026  0.7521980033845803  1.0000
  F   F2        1.0  0.7521980276498427  0.7521980338794204  0.24780196729760062  1.0000
  F   F3        1.0  0.7521979686096549  0.24780197395648634  0.2478020670896932  1.0000
  F   F4        1.0  0.24780192348292088  0.7521981290709888  0.7521980431661763  1.0000
  F   F5        1.0  0.2478020204278723  0.7521979476823375  0.24780205767291458  1.0000
  F   F6        1.0  0.7521980182558824  0.24780199567950859  0.7521979634081157  1.0000
