data_image0
_chemical_formula_structural       Pb2SrF6
_chemical_formula_sum              "Pb2 Sr1 F6"
_cell_length_a       6.029363605132764
_cell_length_b       6.029363488535336
_cell_length_c       6.029363356025765
_cell_angle_alpha    59.999998680389076
_cell_angle_beta     59.99999678127725
_cell_angle_gamma    59.99999871460438

_space_group_name_H-M_alt    "P 1"
_space_group_IT_number       1

loop_
  _space_group_symop_operation_xyz
  'x, y, z'

loop_
  _atom_site_type_symbol
  _atom_site_label
  _atom_site_symmetry_multiplicity
  _atom_site_fract_x
  _atom_site_fract_y
  _atom_site_fract_z
  _atom_site_occupancy
  Pb  Pb1       1.0  0.24999976518007805  0.25000012912864267  0.25000002405929467  1.0000
  Pb  Pb2       1.0  0.7500000780811859  0.749999924249422  0.7500002010633242  1.0000
  Sr  Sr1       1.0  0.9999999608079178  0.999999979686995  5.4630793795817006e-08  1.0000
  F   F1        1.0  0.2640309822100834  0.2640310213799091  0.7359689922646677  1.0000
  F   F2        1.0  0.735969038444594  0.7359689019949279  0.26403091725807126  1.0000
  F   F3        1.0  0.7359690880486258  0.26403115603479066  0.264030872540301  1.0000
  F   F4        1.0  0.2640309122332459  0.7359689318753833  0.735969095926613  1.0000
  F   F5        1.0  0.26403110748846487  0.7359689630856336  0.2640309418132836  1.0000
  F   F6        1.0  0.7359690743655857  0.26403097653960733  0.7359688939115102  1.0000
