data_image0
_chemical_formula_structural       Pb2SnCl6
_chemical_formula_sum              "Pb2 Sn1 Cl6"
_cell_length_a       7.187867637782449
_cell_length_b       7.187867596508393
_cell_length_c       7.187867915166839
_cell_angle_alpha    59.99999878013303
_cell_angle_beta     59.99999873498301
_cell_angle_gamma    60.00000127779494

_space_group_name_H-M_alt    "P 1"
_space_group_IT_number       1

loop_
  _space_group_symop_operation_xyz
  'x, y, z'

loop_
  _atom_site_type_symbol
  _atom_site_label
  _atom_site_symmetry_multiplicity
  _atom_site_fract_x
  _atom_site_fract_y
  _atom_site_fract_z
  _atom_site_occupancy
  Pb  Pb1       1.0  0.2500000264024198  0.25000001401076216  0.24999998479115074  1.0000
  Pb  Pb2       1.0  0.749999961142409  0.7499999432057513  0.7500000266470834  1.0000
  Sn  Sn1       1.0  0.9999999175026878  1.7039041669027283e-09  2.1847454507153145e-07  1.0000
  Cl  Cl1       1.0  0.2471064111965425  0.24710644090354003  0.7528935890168885  1.0000
  Cl  Cl2       1.0  0.7528936534721107  0.752893656033245  0.2471063181729971  1.0000
  Cl  Cl3       1.0  0.7528935622439127  0.24710643404165872  0.24710641744006798  1.0000
  Cl  Cl4       1.0  0.24710651652937066  0.7528934567225335  0.75289348422378  1.0000
  Cl  Cl5       1.0  0.24710648920153627  0.7528935337100464  0.24710648710848593  1.0000
  Cl  Cl6       1.0  0.7528934723949168  0.2471065206290928  0.7528934678741261  1.0000
