data_image0
_chemical_formula_structural       Pb2SeF6
_chemical_formula_sum              "Pb2 Se1 F6"
_cell_length_a       6.077565385702916
_cell_length_b       6.077565457346751
_cell_length_c       6.07756625789706
_cell_angle_alpha    59.999998892159454
_cell_angle_beta     59.99999918259439
_cell_angle_gamma    60.00000158641287

_space_group_name_H-M_alt    "P 1"
_space_group_IT_number       1

loop_
  _space_group_symop_operation_xyz
  'x, y, z'

loop_
  _atom_site_type_symbol
  _atom_site_label
  _atom_site_symmetry_multiplicity
  _atom_site_fract_x
  _atom_site_fract_y
  _atom_site_fract_z
  _atom_site_occupancy
  Pb  Pb1       1.0  0.249999848803788  0.25000005490835187  0.2500000339097456  1.0000
  Pb  Pb2       1.0  0.7500000445643774  0.7499999128263269  0.7500000526448993  1.0000
  Se  Se1       1.0  0.9999999949159819  0.999999901255694  9.963062808285347e-08  1.0000
  F   F1        1.0  0.2498294975707985  0.24982953246476763  0.7501704791387714  1.0000
  F   F2        1.0  0.7501704298250914  0.750170344586364  0.24982959954508321  1.0000
  F   F3        1.0  0.7501704470699243  0.24982965363685658  0.24982969716690134  1.0000
  F   F4        1.0  0.24982962316377844  0.7501704047813729  0.750170230932275  1.0000
  F   F5        1.0  0.24982955279808  0.7501706134360646  0.24982951374486095  1.0000
  F   F6        1.0  0.7501704910833579  0.24982959813659855  0.7501703131091382  1.0000
