data_image0
_chemical_formula_structural       Pb2SeBr6
_chemical_formula_sum              "Pb2 Se1 Br6"
_cell_length_a       7.543315886533893
_cell_length_b       7.543315876798799
_cell_length_c       7.543315881001053
_cell_angle_alpha    59.999999878661555
_cell_angle_beta     59.99999987547348
_cell_angle_gamma    59.99999926441074

_space_group_name_H-M_alt    "P 1"
_space_group_IT_number       1

loop_
  _space_group_symop_operation_xyz
  'x, y, z'

loop_
  _atom_site_type_symbol
  _atom_site_label
  _atom_site_symmetry_multiplicity
  _atom_site_fract_x
  _atom_site_fract_y
  _atom_site_fract_z
  _atom_site_occupancy
  Pb  Pb1       1.0  0.250000016673133  0.2500000044379335  0.24999999022823408  1.0000
  Pb  Pb2       1.0  0.7500000248772475  0.7500000474097378  0.7500000112808257  1.0000
  Se  Se1       1.0  0.9999999878308452  2.273062481281997e-08  5.172337391585409e-08  1.0000
  Br  Br1       1.0  0.2510509362007293  0.25105093832782316  0.7489490714052002  1.0000
  Br  Br2       1.0  0.7489490536142471  0.7489490437043582  0.2510509113386898  1.0000
  Br  Br3       1.0  0.7489490844041333  0.25105091867029894  0.2510509184492462  1.0000
  Br  Br4       1.0  0.25105092848102945  0.7489490308895613  0.7489490424821722  1.0000
  Br  Br5       1.0  0.2510509283843741  0.7489490701572643  0.2510509354707274  1.0000
  Br  Br6       1.0  0.748949044406531  0.2510509216166136  0.7489490814049199  1.0000
