data_image0
_chemical_formula_structural       Pb2SiO6
_chemical_formula_sum              "Pb2 Si1 O6"
_cell_length_a       5.244848275694603
_cell_length_b       5.24484834084002
_cell_length_c       5.244848459582052
_cell_angle_alpha    59.999998819086045
_cell_angle_beta     59.99999930553477
_cell_angle_gamma    59.99999911420358

_space_group_name_H-M_alt    "P 1"
_space_group_IT_number       1

loop_
  _space_group_symop_operation_xyz
  'x, y, z'

loop_
  _atom_site_type_symbol
  _atom_site_label
  _atom_site_symmetry_multiplicity
  _atom_site_fract_x
  _atom_site_fract_y
  _atom_site_fract_z
  _atom_site_occupancy
  Pb  Pb1       1.0  0.2500000330911877  0.24999997663044074  0.2499999990552719  1.0000
  Pb  Pb2       1.0  0.750000030867811  0.7499999765940984  0.7500000328035293  1.0000
  Si  Si1       1.0  1.6944976034772753e-08  3.502708167429179e-08  1.405325947401816e-08  1.0000
  O   O1        1.0  0.23837407982992617  0.2383741205510466  0.7616258751630228  1.0000
  O   O2        1.0  0.7616258814098084  0.7616258700357146  0.23837408832276172  1.0000
  O   O3        1.0  0.7616258540573208  0.23837413635438093  0.23837412176048767  1.0000
  O   O4        1.0  0.2383740773598048  0.7616259172811276  0.7616258861244761  1.0000
  O   O5        1.0  0.2383740777708889  0.7616259020825663  0.23837413683758576  1.0000
  O   O6        1.0  0.7616258776424557  0.23837408616905573  0.7616258764881499  1.0000
