data_image0
_chemical_formula_structural       Pb2TiTe6
_chemical_formula_sum              "Pb2 Ti1 Te6"
_cell_length_a       7.356109497630026
_cell_length_b       7.356109487372348
_cell_length_c       7.356109410613711
_cell_angle_alpha    60.00000062945548
_cell_angle_beta     60.0000006763546
_cell_angle_gamma    59.999999751136016

_space_group_name_H-M_alt    "P 1"
_space_group_IT_number       1

loop_
  _space_group_symop_operation_xyz
  'x, y, z'

loop_
  _atom_site_type_symbol
  _atom_site_label
  _atom_site_symmetry_multiplicity
  _atom_site_fract_x
  _atom_site_fract_y
  _atom_site_fract_z
  _atom_site_occupancy
  Pb  Pb1       1.0  0.250000011834984  0.24999999975259946  0.25000002038933417  1.0000
  Pb  Pb2       1.0  0.7499999896349752  0.7499999626292151  0.7500000534783692  1.0000
  Ti  Ti1       1.0  0.9999999954812895  0.9999999900103862  0.9999999501587634  1.0000
  Te  Te1       1.0  0.2613848851700313  0.26138489873502313  0.7386150941351497  1.0000
  Te  Te2       1.0  0.7386151015848275  0.7386151219195379  0.26138487095121843  1.0000
  Te  Te3       1.0  0.7386151021261137  0.26138492132793695  0.2613848349630875  1.0000
  Te  Te4       1.0  0.2613848193970639  0.7386151725837918  0.7386151791276933  1.0000
  Te  Te5       1.0  0.26138492996168194  0.7386150816533594  0.2613848313639115  1.0000
  Te  Te6       1.0  0.7386151641378789  0.26138485242454884  0.7386151586832026  1.0000
