data_image0
_chemical_formula_structural       Pb2TiS6
_chemical_formula_sum              "Pb2 Ti1 S6"
_cell_length_a       6.487431259169856
_cell_length_b       6.48743126563326
_cell_length_c       6.4874314693362845
_cell_angle_alpha    59.99999872064863
_cell_angle_beta     60.00000014135631
_cell_angle_gamma    60.00000009443267

_space_group_name_H-M_alt    "P 1"
_space_group_IT_number       1

loop_
  _space_group_symop_operation_xyz
  'x, y, z'

loop_
  _atom_site_type_symbol
  _atom_site_label
  _atom_site_symmetry_multiplicity
  _atom_site_fract_x
  _atom_site_fract_y
  _atom_site_fract_z
  _atom_site_occupancy
  Pb  Pb1       1.0  0.24999998003049068  0.25000000094565167  0.25000004299977147  1.0000
  Pb  Pb2       1.0  0.7500000041680172  0.7500000028369564  0.7499999844357684  1.0000
  Ti  Ti1       1.0  0.9999999641859817  1.1327239171734601e-08  1.3401731524704712e-07  1.0000
  S   S1        1.0  0.25481855629484523  0.25481862802443633  0.7451814067323178  1.0000
  S   S2        1.0  0.7451814310315932  0.7451813984126526  0.2548185816075004  1.0000
  S   S3        1.0  0.745181415920105  0.25481863178753567  0.25481853946456046  1.0000
  S   S4        1.0  0.25481863814506167  0.7451813172467455  0.745181358637888  1.0000
  S   S5        1.0  0.2548186201502687  0.745181358589658  0.25481860093154346  1.0000
  S   S6        1.0  0.7451813840405354  0.2548186546323179  0.7451813300917333  1.0000
