data_image0
_chemical_formula_structural       Pb2TiCl6
_chemical_formula_sum              "Pb2 Ti1 Cl6"
_cell_length_a       6.953696326080668
_cell_length_b       6.953696265817674
_cell_length_c       6.953695590570718
_cell_angle_alpha    60.00000634203079
_cell_angle_beta     60.00000736269765
_cell_angle_gamma    59.99999861494425

_space_group_name_H-M_alt    "P 1"
_space_group_IT_number       1

loop_
  _space_group_symop_operation_xyz
  'x, y, z'

loop_
  _atom_site_type_symbol
  _atom_site_label
  _atom_site_symmetry_multiplicity
  _atom_site_fract_x
  _atom_site_fract_y
  _atom_site_fract_z
  _atom_site_occupancy
  Pb  Pb1       1.0  0.2500001116510105  0.2499999638873263  0.24999992147508118  1.0000
  Pb  Pb2       1.0  0.7499999656646206  0.7500003319835207  0.7500000165255246  1.0000
  Ti  Ti1       1.0  1.9436854295570883e-07  2.4657993248548983e-08  0.9999999379435179  1.0000
  Cl  Cl1       1.0  0.24315662413552872  0.24315648373147952  0.7568434717789218  1.0000
  Cl  Cl2       1.0  0.7568433674271938  0.7568432872761272  0.2431566119023935  1.0000
  Cl  Cl3       1.0  0.7568437314967464  0.24315635041676498  0.24315618674455086  1.0000
  Cl  Cl4       1.0  0.24315615474283556  0.7568436319451736  0.7568438094071489  1.0000
  Cl  Cl5       1.0  0.24315632235505358  0.7568436071291923  0.24315633776624798  1.0000
  Cl  Cl6       1.0  0.7568435533686633  0.24315631711030683  0.7568436754475916  1.0000
