data_image0
_chemical_formula_structural       Pb2TeS6
_chemical_formula_sum              "Pb2 Te1 S6"
_cell_length_a       6.758436612524259
_cell_length_b       6.758436358920883
_cell_length_c       6.758436463098811
_cell_angle_alpha    60.00000052517335
_cell_angle_beta     60.00000054867326
_cell_angle_gamma    59.99999980229125

_space_group_name_H-M_alt    "P 1"
_space_group_IT_number       1

loop_
  _space_group_symop_operation_xyz
  'x, y, z'

loop_
  _atom_site_type_symbol
  _atom_site_label
  _atom_site_symmetry_multiplicity
  _atom_site_fract_x
  _atom_site_fract_y
  _atom_site_fract_z
  _atom_site_occupancy
  Pb  Pb1       1.0  0.25000004622432914  0.24999996182486744  0.24999997960102277  1.0000
  Pb  Pb2       1.0  0.7499999898203692  0.7500000757526551  0.7499998751810197  1.0000
  Te  Te1       1.0  0.9999999947885461  0.9999999746295931  3.748541270353605e-08  1.0000
  S   S1        1.0  0.251353086919277  0.25135319474640383  0.748646876603783  1.0000
  S   S2        1.0  0.7486468731386748  0.7486468555163239  0.25135314595518987  1.0000
  S   S3        1.0  0.74864688182821  0.25135309056393  0.2513531757413505  1.0000
  S   S4        1.0  0.25135307545229923  0.7486468962727805  0.748646915430524  1.0000
  S   S5        1.0  0.25135309894751023  0.7486468592873199  0.2513531341300359  1.0000
  S   S6        1.0  0.7486469494033959  0.2513531003668107  0.7486468629533788  1.0000
