data_image0
_chemical_formula_structural       Pb2TaS6
_chemical_formula_sum              "Pb2 Ta1 S6"
_cell_length_a       6.5027745300104005
_cell_length_b       6.502774694258268
_cell_length_c       6.502774687072011
_cell_angle_alpha    60.00000001892769
_cell_angle_beta     59.999998902487484
_cell_angle_gamma    59.99999980203687

_space_group_name_H-M_alt    "P 1"
_space_group_IT_number       1

loop_
  _space_group_symop_operation_xyz
  'x, y, z'

loop_
  _atom_site_type_symbol
  _atom_site_label
  _atom_site_symmetry_multiplicity
  _atom_site_fract_x
  _atom_site_fract_y
  _atom_site_fract_z
  _atom_site_occupancy
  Pb  Pb1       1.0  0.25000004597528824  0.2500000236586781  0.24999994097481493  1.0000
  Pb  Pb2       1.0  0.7500000084625974  0.7499999692714153  0.7500000153986426  1.0000
  Ta  Ta1       1.0  4.3085808431125483e-10  0.9999999773989733  0.9999999695643469  1.0000
  S   S1        1.0  0.26016952652260567  0.2601695688358611  0.7398305259640222  1.0000
  S   S2        1.0  0.7398304332458919  0.7398304843636372  0.2601695567935883  1.0000
  S   S3        1.0  0.7398304506205211  0.26016954360732025  0.2601695146404413  1.0000
  S   S4        1.0  0.26016955807990744  0.7398304267217466  0.7398304543729868  1.0000
  S   S5        1.0  0.2601695671864624  0.7398304356935935  0.26016957130703383  1.0000
  S   S6        1.0  0.7398303988785789  0.2601695666535947  0.7398304629894257  1.0000
