data_image0
_chemical_formula_structural       Pb2TiSe6
_chemical_formula_sum              "Pb2 Ti1 Se6"
_cell_length_a       6.8666790799692174
_cell_length_b       6.866679197369613
_cell_length_c       6.866679135233584
_cell_angle_alpha    60.00000074382338
_cell_angle_beta     59.999999432504424
_cell_angle_gamma    59.9999992494025

_space_group_name_H-M_alt    "P 1"
_space_group_IT_number       1

loop_
  _space_group_symop_operation_xyz
  'x, y, z'

loop_
  _atom_site_type_symbol
  _atom_site_label
  _atom_site_symmetry_multiplicity
  _atom_site_fract_x
  _atom_site_fract_y
  _atom_site_fract_z
  _atom_site_occupancy
  Pb  Pb1       1.0  0.2500000108772833  0.2500000153159838  0.24999997587057474  1.0000
  Pb  Pb2       1.0  0.7499999306138  0.7500001048069433  0.7499999433660216  1.0000
  Ti  Ti1       1.0  2.3950420391111787e-08  0.9999999785967305  7.464272659660268e-09  1.0000
  Se  Se1       1.0  0.2552243035105875  0.2552242745384019  0.7447757352468297  1.0000
  Se  Se2       1.0  0.7447757006952171  0.7447756725747652  0.2552243177779193  1.0000
  Se  Se3       1.0  0.744775727884597  0.2552242532671096  0.2552243241345948  1.0000
  Se  Se4       1.0  0.2552243329185639  0.7447756653083643  0.7447756769963135  1.0000
  Se  Se5       1.0  0.2552242888029679  0.7447756961728087  0.255224322069061  1.0000
  Se  Se6       1.0  0.7447756806312733  0.25522434012064754  0.7447757008387096  1.0000
