data_image0
_chemical_formula_structural       Pb2TaO6
_chemical_formula_sum              "Pb2 Ta1 O6"
_cell_length_a       5.81808436681186
_cell_length_b       5.818084024451898
_cell_length_c       5.818084292452114
_cell_angle_alpha    60.00000093284729
_cell_angle_beta     60.000001886045055
_cell_angle_gamma    60.000000352917674

_space_group_name_H-M_alt    "P 1"
_space_group_IT_number       1

loop_
  _space_group_symop_operation_xyz
  'x, y, z'

loop_
  _atom_site_type_symbol
  _atom_site_label
  _atom_site_symmetry_multiplicity
  _atom_site_fract_x
  _atom_site_fract_y
  _atom_site_fract_z
  _atom_site_occupancy
  Pb  Pb1       1.0  0.250000012600604  0.2499999112773948  0.24999994127024897  1.0000
  Pb  Pb2       1.0  0.7500000070443608  0.7500000285413762  0.7499998929320026  1.0000
  Ta  Ta1       1.0  1.0192010027670841e-07  0.9999999978949333  0.9999998761849954  1.0000
  O   O1        1.0  0.23973539203325434  0.2397352961050814  0.7602646987057385  1.0000
  O   O2        1.0  0.7602645374586131  0.7602646879200734  0.239735445505931  1.0000
  O   O3        1.0  0.7602646609835616  0.23973533351085008  0.23973542741728257  1.0000
  O   O4        1.0  0.2397353460516682  0.7602646084129928  0.7602647007921405  1.0000
  O   O5        1.0  0.23973525161455744  0.7602646662622365  0.23973540603901197  1.0000
  O   O6        1.0  0.7602646871574159  0.239735420911132  0.760264597738338  1.0000
