data_image0
_chemical_formula_structural       Pb2TiI6
_chemical_formula_sum              "Pb2 Ti1 I6"
_cell_length_a       8.004018383687173
_cell_length_b       8.00401833849433
_cell_length_c       8.004018366815178
_cell_angle_alpha    60.00000111708404
_cell_angle_beta     60.00000190076334
_cell_angle_gamma    60.0000004548268

_space_group_name_H-M_alt    "P 1"
_space_group_IT_number       1

loop_
  _space_group_symop_operation_xyz
  'x, y, z'

loop_
  _atom_site_type_symbol
  _atom_site_label
  _atom_site_symmetry_multiplicity
  _atom_site_fract_x
  _atom_site_fract_y
  _atom_site_fract_z
  _atom_site_occupancy
  Pb  Pb1       1.0  0.24999998045674804  0.2499999849549189  0.25000004389900576  1.0000
  Pb  Pb2       1.0  0.7499999824769995  0.7500000436141798  0.7499999243404707  1.0000
  Ti  Ti1       1.0  4.8437550595316125e-08  3.2133410682533735e-08  0.9999997648124188  1.0000
  I   I1        1.0  0.24469979962206895  0.2446997397679542  0.7553001851470846  1.0000
  I   I2        1.0  0.7553001629341805  0.7553002077025328  0.24469983382542587  1.0000
  I   I3        1.0  0.755300172119252  0.24469979115501075  0.24469984147137427  1.0000
  I   I4        1.0  0.24469977337012982  0.7553003200428637  0.7553002553449433  1.0000
  I   I5        1.0  0.2446997925656883  0.7553001649461208  0.2446998333036338  1.0000
  I   I6        1.0  0.7553002857827197  0.24469971213689248  0.755300314140601  1.0000
