data_image0
_chemical_formula_structural       Pb2TaTe6
_chemical_formula_sum              "Pb2 Ta1 Te6"
_cell_length_a       7.433402398898056
_cell_length_b       7.43340242326266
_cell_length_c       7.433402398821273
_cell_angle_alpha    59.999999952375745
_cell_angle_beta     59.999999902207115
_cell_angle_gamma    59.99999998425761

_space_group_name_H-M_alt    "P 1"
_space_group_IT_number       1

loop_
  _space_group_symop_operation_xyz
  'x, y, z'

loop_
  _atom_site_type_symbol
  _atom_site_label
  _atom_site_symmetry_multiplicity
  _atom_site_fract_x
  _atom_site_fract_y
  _atom_site_fract_z
  _atom_site_occupancy
  Pb  Pb1       1.0  0.25000000209998247  0.25000000322935406  0.24999999827900068  1.0000
  Pb  Pb2       1.0  0.7500000011067237  0.7499999833260858  0.7500000119598811  1.0000
  Ta  Ta1       1.0  4.864808563913835e-09  0.9999999621046589  9.788871409425607e-09  1.0000
  Te  Te1       1.0  0.26206214266003325  0.26206214726707333  0.7379378560361991  1.0000
  Te  Te2       1.0  0.7379378768801776  0.7379378788313311  0.2620621168474951  1.0000
  Te  Te3       1.0  0.7379378546595432  0.2620621523825501  0.26206214510252235  1.0000
  Te  Te4       1.0  0.262062130345242  0.7379378654777368  0.7379378639660122  1.0000
  Te  Te5       1.0  0.26206213424941294  0.737937864497326  0.2620621423142864  1.0000
  Te  Te6       1.0  0.7379378524029958  0.26206214842009024  0.737937853603803  1.0000
