data_image0
_chemical_formula_structural       Pb2VI6
_chemical_formula_sum              "Pb2 V1 I6"
_cell_length_a       7.855820753056257
_cell_length_b       7.855820671533852
_cell_length_c       7.855821053050291
_cell_angle_alpha    59.99999902827151
_cell_angle_beta     59.99999784504025
_cell_angle_gamma    60.00000034729635

_space_group_name_H-M_alt    "P 1"
_space_group_IT_number       1

loop_
  _space_group_symop_operation_xyz
  'x, y, z'

loop_
  _atom_site_type_symbol
  _atom_site_label
  _atom_site_symmetry_multiplicity
  _atom_site_fract_x
  _atom_site_fract_y
  _atom_site_fract_z
  _atom_site_occupancy
  Pb  Pb1       1.0  0.2500000252231161  0.2499999370362744  0.25000000991657395  1.0000
  Pb  Pb2       1.0  0.7500000140953718  0.7499999826019634  0.7499999633336685  1.0000
  V   V1        1.0  0.9999999744899756  1.5590285555585295e-07  0.9999999551706481  1.0000
  I   I1        1.0  0.2447860251767736  0.24478602535008603  0.7552139598705864  1.0000
  I   I2        1.0  0.7552138908053834  0.7552139644444357  0.24478609979792743  1.0000
  I   I3        1.0  0.7552139486459116  0.2447860071604808  0.24478609725450767  1.0000
  I   I4        1.0  0.24478606739160852  0.7552139514534707  0.7552138872424834  1.0000
  I   I5        1.0  0.24478607085136236  0.7552139195569718  0.24478613548685269  1.0000
  I   I6        1.0  0.7552139895343328  0.24478605152920974  0.7552139007952451  1.0000
