data_image0
_chemical_formula_structural       Pb2VF6
_chemical_formula_sum              "Pb2 V1 F6"
_cell_length_a       5.83273486554756
_cell_length_b       5.832734788173545
_cell_length_c       5.832734761108512
_cell_angle_alpha    60.00000045292825
_cell_angle_beta     59.99999914556169
_cell_angle_gamma    60.000000162841026

_space_group_name_H-M_alt    "P 1"
_space_group_IT_number       1

loop_
  _space_group_symop_operation_xyz
  'x, y, z'

loop_
  _atom_site_type_symbol
  _atom_site_label
  _atom_site_symmetry_multiplicity
  _atom_site_fract_x
  _atom_site_fract_y
  _atom_site_fract_z
  _atom_site_occupancy
  Pb  Pb1       1.0  0.24999997555022344  0.25000004312168095  0.2499999626843791  1.0000
  Pb  Pb2       1.0  0.7499999729658736  0.7499999844803568  0.750000060779116  1.0000
  V   V1        1.0  3.097511120950864e-08  2.099777620821095e-09  0.9999999200274746  1.0000
  F   F1        1.0  0.24485925767824676  0.2448591986620434  0.7551407558009668  1.0000
  F   F2        1.0  0.7551408367550555  0.7551408247404383  0.2448591522276992  1.0000
  F   F3        1.0  0.7551407343113021  0.2448592401216595  0.24485923114574884  1.0000
  F   F4        1.0  0.2448592023266555  0.7551407874803787  0.7551408462617416  1.0000
  F   F5        1.0  0.2448592335505736  0.7551407220650314  0.24485924385958122  1.0000
  F   F6        1.0  0.755140760800376  0.24485918584965616  0.7551408199590851  1.0000
