data_image0
_chemical_formula_structural       Pb2VTe6
_chemical_formula_sum              "Pb2 V1 Te6"
_cell_length_a       7.253049937779798
_cell_length_b       7.2530500068845445
_cell_length_c       7.253049870989965
_cell_angle_alpha    60.00000027315758
_cell_angle_beta     60.00000045153689
_cell_angle_gamma    59.99999952172412

_space_group_name_H-M_alt    "P 1"
_space_group_IT_number       1

loop_
  _space_group_symop_operation_xyz
  'x, y, z'

loop_
  _atom_site_type_symbol
  _atom_site_label
  _atom_site_symmetry_multiplicity
  _atom_site_fract_x
  _atom_site_fract_y
  _atom_site_fract_z
  _atom_site_occupancy
  Pb  Pb1       1.0  0.2499999481352902  0.2500000909729824  0.24999996965981547  1.0000
  Pb  Pb2       1.0  0.7500000528199852  0.750000029761568  0.7499999815002935  1.0000
  V   V1        1.0  2.234887797080146e-09  2.1951707747575185e-08  0.9999999575746344  1.0000
  Te  Te1       1.0  0.25934245163741537  0.25934246861180477  0.7406575558922385  1.0000
  Te  Te2       1.0  0.7406575689712466  0.7406575119695351  0.2593424693050866  1.0000
  Te  Te3       1.0  0.7406575524530172  0.25934244817984814  0.25934245823549146  1.0000
  Te  Te4       1.0  0.2593424263933877  0.7406575239585278  0.7406575768984099  1.0000
  Te  Te5       1.0  0.25934244501469883  0.7406575041653602  0.25934248078784833  1.0000
  Te  Te6       1.0  0.7406575478233111  0.25934240211789295  0.7406575499457445  1.0000
