data_image0
_chemical_formula_structural       Pb2VS6
_chemical_formula_sum              "Pb2 V1 S6"
_cell_length_a       6.461893793922938
_cell_length_b       6.4618938410195375
_cell_length_c       6.46189391816167
_cell_angle_alpha    59.999998571765325
_cell_angle_beta     59.99999853788874
_cell_angle_gamma    59.99999831060667

_space_group_name_H-M_alt    "P 1"
_space_group_IT_number       1

loop_
  _space_group_symop_operation_xyz
  'x, y, z'

loop_
  _atom_site_type_symbol
  _atom_site_label
  _atom_site_symmetry_multiplicity
  _atom_site_fract_x
  _atom_site_fract_y
  _atom_site_fract_z
  _atom_site_occupancy
  Pb  Pb1       1.0  0.250000028045265  0.24999998098710371  0.25000001532589755  1.0000
  Pb  Pb2       1.0  0.7500000022246248  0.7499999903446695  0.7500000199106492  1.0000
  V   V1        1.0  1.922273700393581e-08  2.274401065603792e-08  4.091798251269693e-08  1.0000
  S   S1        1.0  0.24756634994466356  0.24756635802075716  0.7524336319900686  1.0000
  S   S2        1.0  0.752433575183858  0.7524336606943745  0.24756637950933005  1.0000
  S   S3        1.0  0.7524335914427451  0.24756640080074677  0.2475663440767585  1.0000
  S   S4        1.0  0.24756644711146059  0.7524336046470439  0.7524336018681292  1.0000
  S   S5        1.0  0.24756641214427763  0.7524335881363975  0.24756633462490957  1.0000
  S   S6        1.0  0.7524335736503486  0.24756640404405386  0.7524336536186409  1.0000
