data_image0
_chemical_formula_structural       Pb2VBr6
_chemical_formula_sum              "Pb2 V1 Br6"
_cell_length_a       7.298988406224089
_cell_length_b       7.298988562168087
_cell_length_c       7.298988503561472
_cell_angle_alpha    59.99999972524074
_cell_angle_beta     60.00000014571119
_cell_angle_gamma    59.99999976604025

_space_group_name_H-M_alt    "P 1"
_space_group_IT_number       1

loop_
  _space_group_symop_operation_xyz
  'x, y, z'

loop_
  _atom_site_type_symbol
  _atom_site_label
  _atom_site_symmetry_multiplicity
  _atom_site_fract_x
  _atom_site_fract_y
  _atom_site_fract_z
  _atom_site_occupancy
  Pb  Pb1       1.0  0.24999998018491645  0.24999999654732913  0.25000001147773354  1.0000
  Pb  Pb2       1.0  0.7499999805681259  0.7499999929979179  0.7499999730170144  1.0000
  V   V1        1.0  0.9999999299422467  1.342372171706382e-07  0.999999795283608  1.0000
  Br  Br1       1.0  0.24549255137049128  0.24549258021663528  0.7545074228443164  1.0000
  Br  Br2       1.0  0.7545074322653481  0.7545074261082632  0.24549258840100435  1.0000
  Br  Br3       1.0  0.7545073962969888  0.2454925963832044  0.24549256669823533  1.0000
  Br  Br4       1.0  0.24549258639567148  0.7545074317552413  0.7545074656231168  1.0000
  Br  Br5       1.0  0.24549261551280852  0.754507363849627  0.24549262519299017  1.0000
  Br  Br6       1.0  0.7545075226026121  0.2454924780346805  0.7545075568092316  1.0000
