data_image0
_chemical_formula_structural       Pb2VO6
_chemical_formula_sum              "Pb2 V1 O6"
_cell_length_a       5.73314449389415
_cell_length_b       5.73314455015443
_cell_length_c       5.733144451147461
_cell_angle_alpha    59.9999985636794
_cell_angle_beta     60.00000014533118
_cell_angle_gamma    59.99999931833788

_space_group_name_H-M_alt    "P 1"
_space_group_IT_number       1

loop_
  _space_group_symop_operation_xyz
  'x, y, z'

loop_
  _atom_site_type_symbol
  _atom_site_label
  _atom_site_symmetry_multiplicity
  _atom_site_fract_x
  _atom_site_fract_y
  _atom_site_fract_z
  _atom_site_occupancy
  Pb  Pb1       1.0  0.2500000781065411  0.249999955853088  0.2500000338792904  1.0000
  Pb  Pb2       1.0  0.7500000268904576  0.7499998312429609  0.7500001118790217  1.0000
  V   V1        1.0  3.951020537121273e-08  0.9999998995960944  7.405293939119274e-08  1.0000
  O   O1        1.0  0.2310843415054167  0.23108441517200373  0.7689156526629976  1.0000
  O   O2        1.0  0.7689155084922981  0.768915647500723  0.2310843467556199  1.0000
  O   O3        1.0  0.7689156017348201  0.23108451640580857  0.23108425464951338  1.0000
  O   O4        1.0  0.2310843273180341  0.7689156958046488  0.768915611285988  1.0000
  O   O5        1.0  0.23108432711245727  0.7689156074350428  0.2310844363753866  1.0000
  O   O6        1.0  0.7689157429888068  0.23108449582649407  0.7689155181649824  1.0000
