data_image0
_chemical_formula_structural       Pb2WS6
_chemical_formula_sum              "Pb2 W1 S6"
_cell_length_a       6.582790096952469
_cell_length_b       6.582790148574691
_cell_length_c       6.582790107076987
_cell_angle_alpha    60.000000320460984
_cell_angle_beta     59.99999989533046
_cell_angle_gamma    60.000000361479536

_space_group_name_H-M_alt    "P 1"
_space_group_IT_number       1

loop_
  _space_group_symop_operation_xyz
  'x, y, z'

loop_
  _atom_site_type_symbol
  _atom_site_label
  _atom_site_symmetry_multiplicity
  _atom_site_fract_x
  _atom_site_fract_y
  _atom_site_fract_z
  _atom_site_occupancy
  Pb  Pb1       1.0  0.2500000001043091  0.24999998626282208  0.2500000230989765  1.0000
  Pb  Pb2       1.0  0.7500000286615548  0.7500000053016025  0.749999995407343  1.0000
  W   W1        1.0  0.9999999839119582  0.9999999851157964  3.979192577788812e-08  1.0000
  S   S1        1.0  0.24798250556853302  0.2479825020303512  0.7520174739668593  1.0000
  S   S2        1.0  0.7520174807792293  0.7520175062788025  0.24798248293962472  1.0000
  S   S3        1.0  0.7520174401358258  0.24798256356516185  0.2479825373580548  1.0000
  S   S4        1.0  0.24798254950736648  0.7520174559071447  0.7520174518160678  1.0000
  S   S5        1.0  0.24798254455273466  0.7520174663283066  0.24798252680372979  1.0000
  S   S6        1.0  0.7520174664591165  0.2479825363992709  0.7520174539819771  1.0000
