data_image0
_chemical_formula_structural       Pb2WTe6
_chemical_formula_sum              "Pb2 W1 Te6"
_cell_length_a       7.361848982464214
_cell_length_b       7.361849022540278
_cell_length_c       7.361848966997997
_cell_angle_alpha    60.000001080647465
_cell_angle_beta     60.000000596150215
_cell_angle_gamma    60.00000009245915

_space_group_name_H-M_alt    "P 1"
_space_group_IT_number       1

loop_
  _space_group_symop_operation_xyz
  'x, y, z'

loop_
  _atom_site_type_symbol
  _atom_site_label
  _atom_site_symmetry_multiplicity
  _atom_site_fract_x
  _atom_site_fract_y
  _atom_site_fract_z
  _atom_site_occupancy
  Pb  Pb1       1.0  0.24999999398636563  0.2500000312332756  0.2499999867634388  1.0000
  Pb  Pb2       1.0  0.7499999799638524  0.7500000338088743  0.7499999912334145  1.0000
  W   W1        1.0  6.559405339358331e-09  0.9999999850272617  0.9999999946981855  1.0000
  Te  Te1       1.0  0.2591854428062868  0.25918539379761396  0.7408145738985005  1.0000
  Te  Te2       1.0  0.740814589417419  0.7408145764171943  0.2591854196585705  1.0000
  Te  Te3       1.0  0.7408146057604783  0.2591853901923555  0.25918540486816855  1.0000
  Te  Te4       1.0  0.2591854077364619  0.7408145750315402  0.7408146154896399  1.0000
  Te  Te5       1.0  0.2591853975959274  0.7408145930797634  0.2591854126898632  1.0000
  Te  Te6       1.0  0.7408145710317708  0.2591854220532595  0.7408146010729396  1.0000
