data_image0
_chemical_formula_structural       Pb2YBr6
_chemical_formula_sum              "Pb2 Y1 Br6"
_cell_length_a       7.595509282598005
_cell_length_b       7.595509199396216
_cell_length_c       7.595509272083279
_cell_angle_alpha    60.00000104579071
_cell_angle_beta     60.00000061484839
_cell_angle_gamma    60.00000023753285

_space_group_name_H-M_alt    "P 1"
_space_group_IT_number       1

loop_
  _space_group_symop_operation_xyz
  'x, y, z'

loop_
  _atom_site_type_symbol
  _atom_site_label
  _atom_site_symmetry_multiplicity
  _atom_site_fract_x
  _atom_site_fract_y
  _atom_site_fract_z
  _atom_site_occupancy
  Pb  Pb1       1.0  0.2499999210270251  0.25000002593077275  0.2500000188422968  1.0000
  Pb  Pb2       1.0  0.7500000650584593  0.7499999471831245  0.7500000590528118  1.0000
  Y   Y1        1.0  0.9999999753389145  0.9999999645258971  0.9999999695054926  1.0000
  Br  Br1       1.0  0.2561379882451745  0.25613804873676305  0.7438619797072361  1.0000
  Br  Br2       1.0  0.7438620555620046  0.7438620066125513  0.2561379360495988  1.0000
  Br  Br3       1.0  0.7438620197905693  0.2561380104906925  0.25613796305108344  1.0000
  Br  Br4       1.0  0.2561379340615533  0.7438620319589493  0.7438620673283514  1.0000
  Br  Br5       1.0  0.25613798377846614  0.743862015800548  0.25613795367837505  1.0000
  Br  Br6       1.0  0.7438620531968969  0.2561379460261338  0.7438620530692728  1.0000
