data_image0
_chemical_formula_structural       Pb2YF6
_chemical_formula_sum              "Pb2 Y1 F6"
_cell_length_a       6.11242088754463
_cell_length_b       6.112420776196514
_cell_length_c       6.112421211062887
_cell_angle_alpha    59.99999847838644
_cell_angle_beta     60.00000055298828
_cell_angle_gamma    59.99999851622535

_space_group_name_H-M_alt    "P 1"
_space_group_IT_number       1

loop_
  _space_group_symop_operation_xyz
  'x, y, z'

loop_
  _atom_site_type_symbol
  _atom_site_label
  _atom_site_symmetry_multiplicity
  _atom_site_fract_x
  _atom_site_fract_y
  _atom_site_fract_z
  _atom_site_occupancy
  Pb  Pb1       1.0  0.25000004040454576  0.24999996512668585  0.25000000388989574  1.0000
  Pb  Pb2       1.0  0.7499999862456985  0.7500000055834816  0.7500000387760591  1.0000
  Y   Y1        1.0  0.9999999811089494  1.1714823187668827e-16  1.9261602340877586e-08  1.0000
  F   F1        1.0  0.2486199052357371  0.24861990205274753  0.7513801037096253  1.0000
  F   F2        1.0  0.7513801210510642  0.7513801207535835  0.2486198869137632  1.0000
  F   F3        1.0  0.7513800926069133  0.24861991697543315  0.24861983528742015  1.0000
  F   F4        1.0  0.24861988923845127  0.7513800918050079  0.7513801174931016  1.0000
  F   F5        1.0  0.2486198323300945  0.7513801255037491  0.2486198637487175  1.0000
  F   F6        1.0  0.7513801654106047  0.24861987526189744  0.7513801210838185  1.0000
