data_image0
_chemical_formula_structural       Pb2YI6
_chemical_formula_sum              "Pb2 Y1 I6"
_cell_length_a       8.186307810792398
_cell_length_b       8.186307812076395
_cell_length_c       8.186307809035068
_cell_angle_alpha    60.0000006138827
_cell_angle_beta     59.999999806840584
_cell_angle_gamma    59.999999826805116

_space_group_name_H-M_alt    "P 1"
_space_group_IT_number       1

loop_
  _space_group_symop_operation_xyz
  'x, y, z'

loop_
  _atom_site_type_symbol
  _atom_site_label
  _atom_site_symmetry_multiplicity
  _atom_site_fract_x
  _atom_site_fract_y
  _atom_site_fract_z
  _atom_site_occupancy
  Pb  Pb1       1.0  0.24999999766288108  0.24999999443719043  0.25000000049173693  1.0000
  Pb  Pb2       1.0  0.749999961685688  0.7500000222098967  0.749999981797351  1.0000
  Y   Y1        1.0  3.2256307389183306e-08  3.441005675847268e-08  0.9999999495650912  1.0000
  I   I1        1.0  0.2578597834002383  0.2578597668787616  0.742140215988064  1.0000
  I   I2        1.0  0.7421401986316808  0.7421401944130166  0.25785983027752757  1.0000
  I   I3        1.0  0.7421402251285728  0.2578597326489749  0.25785977854120823  1.0000
  I   I4        1.0  0.25785978351754707  0.74214026305286  0.7421402188889762  1.0000
  I   I5        1.0  0.2578597576931352  0.7421402249736336  0.2578597885761717  1.0000
  I   I6        1.0  0.7421402528622075  0.2578597692321123  0.7421402367431399  1.0000
