data_image0
_chemical_formula_structural       Pb2YCl6
_chemical_formula_sum              "Pb2 Y1 Cl6"
_cell_length_a       7.148556034147584
_cell_length_b       7.148556131517675
_cell_length_c       7.148556057055591
_cell_angle_alpha    59.999999297085964
_cell_angle_beta     60.00000127417431
_cell_angle_gamma    60.00000101847415

_space_group_name_H-M_alt    "P 1"
_space_group_IT_number       1

loop_
  _space_group_symop_operation_xyz
  'x, y, z'

loop_
  _atom_site_type_symbol
  _atom_site_label
  _atom_site_symmetry_multiplicity
  _atom_site_fract_x
  _atom_site_fract_y
  _atom_site_fract_z
  _atom_site_occupancy
  Pb  Pb1       1.0  0.249999962351571  0.24999998490646153  0.25000001881221057  1.0000
  Pb  Pb2       1.0  0.7500000186268013  0.7500000009778336  0.7500000164823009  1.0000
  Y   Y1        1.0  0.9999999186474968  3.083896607664562e-08  0.9999999567114561  1.0000
  Cl  Cl1       1.0  0.2563542666490847  0.25635426480057544  0.7436457213427827  1.0000
  Cl  Cl2       1.0  0.7436457412013472  0.7436457519226864  0.25635424452858246  1.0000
  Cl  Cl3       1.0  0.7436456966035232  0.2563543512118366  0.25635426607593376  1.0000
  Cl  Cl4       1.0  0.25635431579883383  0.7436456809309075  0.743645727579593  1.0000
  Cl  Cl5       1.0  0.25635429484082406  0.7436456943984995  0.25635426823808904  1.0000
  Cl  Cl6       1.0  0.74364577918903  0.25635424008751984  0.7436457756063829  1.0000
