data_image0
_chemical_formula_structural       Pb2ZnBr6
_chemical_formula_sum              "Pb2 Zn1 Br6"
_cell_length_a       7.181118390459106
_cell_length_b       7.181118367928323
_cell_length_c       7.181118372021693
_cell_angle_alpha    60.000000542947284
_cell_angle_beta     59.99999951968066
_cell_angle_gamma    59.99999937927016

_space_group_name_H-M_alt    "P 1"
_space_group_IT_number       1

loop_
  _space_group_symop_operation_xyz
  'x, y, z'

loop_
  _atom_site_type_symbol
  _atom_site_label
  _atom_site_symmetry_multiplicity
  _atom_site_fract_x
  _atom_site_fract_y
  _atom_site_fract_z
  _atom_site_occupancy
  Pb  Pb1       1.0  0.2500000020616558  0.2500000577337985  0.249999970651264  1.0000
  Pb  Pb2       1.0  0.7499999947369871  0.7500000145892318  0.7500000540780344  1.0000
  Zn  Zn1       1.0  4.099624202826571e-08  0.9999999300742062  0.9999999490153599  1.0000
  Br  Br1       1.0  0.25118451589939816  0.2511845111041263  0.7488154708922146  1.0000
  Br  Br2       1.0  0.7488155548184201  0.7488154793545596  0.25118443108845884  1.0000
  Br  Br3       1.0  0.7488154761541321  0.2511844910551641  0.251184536024506  1.0000
  Br  Br4       1.0  0.2511843733608005  0.7488156034394611  0.7488156055699401  1.0000
  Br  Br5       1.0  0.25118453856719797  0.7488154781162574  0.2511844737498808  1.0000
  Br  Br6       1.0  0.7488155052388006  0.25118443388910044  0.7488155087641813  1.0000
