data_image0
_chemical_formula_structural       Pb2ZnCl6
_chemical_formula_sum              "Pb2 Zn1 Cl6"
_cell_length_a       6.744684413460926
_cell_length_b       6.744684418746395
_cell_length_c       6.7446839951478115
_cell_angle_alpha    60.00000389709909
_cell_angle_beta     60.00000295995293
_cell_angle_gamma    60.00000123510725

_space_group_name_H-M_alt    "P 1"
_space_group_IT_number       1

loop_
  _space_group_symop_operation_xyz
  'x, y, z'

loop_
  _atom_site_type_symbol
  _atom_site_label
  _atom_site_symmetry_multiplicity
  _atom_site_fract_x
  _atom_site_fract_y
  _atom_site_fract_z
  _atom_site_occupancy
  Pb  Pb1       1.0  0.25000005281422355  0.2500000212444369  0.2500000885788711  1.0000
  Pb  Pb2       1.0  0.7499999181908298  0.7500000038097038  0.7500000095784674  1.0000
  Zn  Zn1       1.0  0.9999999822063403  0.9999999455239977  5.985721649720129e-08  1.0000
  Cl  Cl1       1.0  0.24934385954253038  0.24934390997611885  0.7506560380721211  1.0000
  Cl  Cl2       1.0  0.7506561927046113  0.7506561641064198  0.24934378589644532  1.0000
  Cl  Cl3       1.0  0.7506561581451051  0.24934381883638249  0.24934390686693353  1.0000
  Cl  Cl4       1.0  0.24934393458818202  0.7506560772912152  0.7506561311356451  1.0000
  Cl  Cl5       1.0  0.24934381852996212  0.7506561394902569  0.24934388273366026  1.0000
  Cl  Cl6       1.0  0.7506560734968514  0.24934392732881822  0.7506560976266093  1.0000
