data_image0
_chemical_formula_structural       Pb2ZrO6
_chemical_formula_sum              "Pb2 Zr1 O6"
_cell_length_a       5.773884559975934
_cell_length_b       5.773884543887013
_cell_length_c       5.773884568160196
_cell_angle_alpha    60.000001665585316
_cell_angle_beta     60.00000020002251
_cell_angle_gamma    59.99999962242994

_space_group_name_H-M_alt    "P 1"
_space_group_IT_number       1

loop_
  _space_group_symop_operation_xyz
  'x, y, z'

loop_
  _atom_site_type_symbol
  _atom_site_label
  _atom_site_symmetry_multiplicity
  _atom_site_fract_x
  _atom_site_fract_y
  _atom_site_fract_z
  _atom_site_occupancy
  Pb  Pb1       1.0  0.24999984340758344  0.2500000289798995  0.25000002021350487  1.0000
  Pb  Pb2       1.0  0.7500000960467643  0.749999919366471  0.7499999671632316  1.0000
  Zr  Zr1       1.0  0.9999999896783531  0.9999999469704972  0.9999999104400364  1.0000
  O   O1        1.0  0.25490185122909376  0.25490191813409196  0.7450982408247618  1.0000
  O   O2        1.0  0.745098217831904  0.7450980853629618  0.2549018810569581  1.0000
  O   O3        1.0  0.745098092385658  0.254901980934753  0.25490181955923596  1.0000
  O   O4        1.0  0.25490187057827945  0.7450982028626013  0.7450981162743486  1.0000
  O   O5        1.0  0.25490176791126296  0.7450980872325453  0.2549019898403858  1.0000
  O   O6        1.0  0.7450983000198685  0.2549018356596653  0.7450980551370227  1.0000
