data_image0
_chemical_formula_structural       Pb2ZrTe6
_chemical_formula_sum              "Pb2 Zr1 Te6"
_cell_length_a       7.5210532385845
_cell_length_b       7.521053310574627
_cell_length_c       7.52105347104228
_cell_angle_alpha    59.999999212685466
_cell_angle_beta     59.99999950021665
_cell_angle_gamma    60.00000188182885

_space_group_name_H-M_alt    "P 1"
_space_group_IT_number       1

loop_
  _space_group_symop_operation_xyz
  'x, y, z'

loop_
  _atom_site_type_symbol
  _atom_site_label
  _atom_site_symmetry_multiplicity
  _atom_site_fract_x
  _atom_site_fract_y
  _atom_site_fract_z
  _atom_site_occupancy
  Pb  Pb1       1.0  0.25000000718409693  0.24999998685263847  0.2500000177065549  1.0000
  Pb  Pb2       1.0  0.7499999976075946  0.7499999817274009  0.7499999880272215  1.0000
  Zr  Zr1       1.0  2.186659784661664e-08  0.9999999804589363  5.069167087657075e-08  1.0000
  Te  Te1       1.0  0.26771079559388383  0.2677107849739785  0.7322892051515275  1.0000
  Te  Te2       1.0  0.7322891690939799  0.732289193376592  0.26771079314568075  1.0000
  Te  Te3       1.0  0.7322891296593905  0.2677109014553521  0.26771088860576436  1.0000
  Te  Te4       1.0  0.26771085295435504  0.732289156687897  0.732289090083385  1.0000
  Te  Te5       1.0  0.26771088248611585  0.732289148264254  0.2677108574154792  1.0000
  Te  Te6       1.0  0.7322891435042791  0.267710862654758  0.7322891032534496  1.0000
