data_image0
_chemical_formula_structural       Pb2ZrSe6
_chemical_formula_sum              "Pb2 Zr1 Se6"
_cell_length_a       7.007484218510388
_cell_length_b       7.007484354725834
_cell_length_c       7.007484313573066
_cell_angle_alpha    59.99999923438873
_cell_angle_beta     60.00000042667448
_cell_angle_gamma    60.00000112195998

_space_group_name_H-M_alt    "P 1"
_space_group_IT_number       1

loop_
  _space_group_symop_operation_xyz
  'x, y, z'

loop_
  _atom_site_type_symbol
  _atom_site_label
  _atom_site_symmetry_multiplicity
  _atom_site_fract_x
  _atom_site_fract_y
  _atom_site_fract_z
  _atom_site_occupancy
  Pb  Pb1       1.0  0.2500000306964706  0.24999996976409916  0.24999993442463792  1.0000
  Pb  Pb2       1.0  0.7499999593135281  0.750000045618106  0.7500000141287512  1.0000
  Zr  Zr1       1.0  0.9999999969699521  4.3694168242328326e-08  1.609027369116099e-07  1.0000
  Se  Se1       1.0  0.2629576179790205  0.2629575897948559  0.7370424182680756  1.0000
  Se  Se2       1.0  0.737042372365147  0.7370423504333744  0.2629576419015909  1.0000
  Se  Se3       1.0  0.7370424046105719  0.2629576253518881  0.2629576188229294  1.0000
  Se  Se4       1.0  0.26295773734929895  0.7370422851643098  0.7370422433985206  1.0000
  Se  Se5       1.0  0.2629576227833327  0.7370424037483828  0.26295762109781295  1.0000
  Se  Se6       1.0  0.7370422526109925  0.2629576885355616  0.7370423463125421  1.0000
