data_image0
_chemical_formula_structural       Pd2AuBr6
_chemical_formula_sum              "Pd2 Au1 Br6"
_cell_length_a       7.065274969056209
_cell_length_b       7.065274974819605
_cell_length_c       7.065275104695692
_cell_angle_alpha    60.000000129612346
_cell_angle_beta     59.99999958265957
_cell_angle_gamma    59.99999994445488

_space_group_name_H-M_alt    "P 1"
_space_group_IT_number       1

loop_
  _space_group_symop_operation_xyz
  'x, y, z'

loop_
  _atom_site_type_symbol
  _atom_site_label
  _atom_site_symmetry_multiplicity
  _atom_site_fract_x
  _atom_site_fract_y
  _atom_site_fract_z
  _atom_site_occupancy
  Pd  Pd1       1.0  0.2499999835751555  0.24999998144486268  0.2500000840699897  1.0000
  Pd  Pd2       1.0  0.7500001278111534  0.7499999426011149  0.7499999041052207  1.0000
  Au  Au1       1.0  0.9999999879818519  1.7334707125693815e-09  0.9999999768348776  1.0000
  Br  Br1       1.0  0.2588972054099558  0.2588972760444117  0.7411027463238596  1.0000
  Br  Br2       1.0  0.7411027545923955  0.7411027589437048  0.25889726631837934  1.0000
  Br  Br3       1.0  0.7411027216450298  0.25889724093914446  0.258897254747618  1.0000
  Br  Br4       1.0  0.25889722115576996  0.7411027819146754  0.7411027414243379  1.0000
  Br  Br5       1.0  0.25889720326699767  0.7411027245412707  0.2588973079994282  1.0000
  Br  Br6       1.0  0.7411027942428617  0.258897286178253  0.7411027192539488  1.0000
