data_image0
_chemical_formula_structural       Pd2AgCl6
_chemical_formula_sum              "Pd2 Ag1 Cl6"
_cell_length_a       6.674545173752544
_cell_length_b       6.674545249420219
_cell_length_c       6.674545072767369
_cell_angle_alpha    59.99999990007318
_cell_angle_beta     59.999999756070316
_cell_angle_gamma    60.000000762774704

_space_group_name_H-M_alt    "P 1"
_space_group_IT_number       1

loop_
  _space_group_symop_operation_xyz
  'x, y, z'

loop_
  _atom_site_type_symbol
  _atom_site_label
  _atom_site_symmetry_multiplicity
  _atom_site_fract_x
  _atom_site_fract_y
  _atom_site_fract_z
  _atom_site_occupancy
  Pd  Pd1       1.0  0.2499999763748391  0.24999984581560714  0.2500000772077506  1.0000
  Pd  Pd2       1.0  0.7499998846628912  0.7499998732424491  0.7499999780837282  1.0000
  Ag  Ag1       1.0  0.999999984010173  2.2019384621010408e-08  7.489315255331633e-08  1.0000
  Cl  Cl1       1.0  0.25650069231446  0.25650074599582956  0.7434992770962866  1.0000
  Cl  Cl2       1.0  0.7434992338096764  0.7434994006052916  0.2565007521201822  1.0000
  Cl  Cl3       1.0  0.7434993467481361  0.2565006782816547  0.25650073538801355  1.0000
  Cl  Cl4       1.0  0.2565008201287845  0.7434993325332588  0.74349920538766  1.0000
  Cl  Cl5       1.0  0.2565007509195986  0.7434993071892846  0.25650065057789706  1.0000
  Cl  Cl6       1.0  0.743499307926323  0.2565008045478113  0.7434992577946776  1.0000
