data_image0
_chemical_formula_structural       Pd2AgF6
_chemical_formula_sum              "Pd2 Ag1 F6"
_cell_length_a       5.696871251316345
_cell_length_b       5.696871448056526
_cell_length_c       5.696871633192303
_cell_angle_alpha    59.99999997189257
_cell_angle_beta     59.99999969312629
_cell_angle_gamma    59.999999586728734

_space_group_name_H-M_alt    "P 1"
_space_group_IT_number       1

loop_
  _space_group_symop_operation_xyz
  'x, y, z'

loop_
  _atom_site_type_symbol
  _atom_site_label
  _atom_site_symmetry_multiplicity
  _atom_site_fract_x
  _atom_site_fract_y
  _atom_site_fract_z
  _atom_site_occupancy
  Pd  Pd1       1.0  0.24999978002563814  0.2499998608619801  0.25000020153956815  1.0000
  Pd  Pd2       1.0  0.7500001521586378  0.7500001866952424  0.7499997543399096  1.0000
  Ag  Ag1       1.0  0.9999999845013943  0.9999999978501449  1.802832709037939e-09  1.0000
  F   F1        1.0  0.25689936452799694  0.2568992364662785  0.7431006643114156  1.0000
  F   F2        1.0  0.7431006677544311  0.7431006992984727  0.25689934480965504  1.0000
  F   F3        1.0  0.7431007528731549  0.2568992109207585  0.2568993832881904  1.0000
  F   F4        1.0  0.2568992553112471  0.7431007484924005  0.7431006699414232  1.0000
  F   F5        1.0  0.256899231307565  0.7431007741803772  0.2568993645338264  1.0000
  F   F6        1.0  0.7431007903063495  0.25689926047771333  0.743100644358566  1.0000
