data_image0
_chemical_formula_structural       Pd2AgI6
_chemical_formula_sum              "Pd2 Ag1 I6"
_cell_length_a       7.469529563614209
_cell_length_b       7.469529430902228
_cell_length_c       7.469529429343192
_cell_angle_alpha    60.0000004940248
_cell_angle_beta     59.99999972381428
_cell_angle_gamma    60.00000021654519

_space_group_name_H-M_alt    "P 1"
_space_group_IT_number       1

loop_
  _space_group_symop_operation_xyz
  'x, y, z'

loop_
  _atom_site_type_symbol
  _atom_site_label
  _atom_site_symmetry_multiplicity
  _atom_site_fract_x
  _atom_site_fract_y
  _atom_site_fract_z
  _atom_site_occupancy
  Pd  Pd1       1.0  0.2500000462954865  0.25000002367471685  0.2499999650032955  1.0000
  Pd  Pd2       1.0  0.7500000002260176  0.7500000464293303  0.7499999766375184  1.0000
  Ag  Ag1       1.0  3.0371072804038446e-08  1.6396546489117124e-09  0.9999999719456842  1.0000
  I   I1        1.0  0.2629823399502143  0.262982351251318  0.7370176577408819  1.0000
  I   I2        1.0  0.7370176527950345  0.7370176204734501  0.26298237202665103  1.0000
  I   I3        1.0  0.7370176238941339  0.26298233278914807  0.26298239490029707  1.0000
  I   I4        1.0  0.2629823335610783  0.7370176520528573  0.7370176486311807  1.0000
  I   I5        1.0  0.2629823667837332  0.7370176019649828  0.262982381683484  1.0000
  I   I6        1.0  0.737017604319179  0.2629823697597851  0.7370176321297692  1.0000
