data_image0
_chemical_formula_structural       Pd2AuF6
_chemical_formula_sum              "Pd2 Au1 F6"
_cell_length_a       5.628426280964758
_cell_length_b       5.628426029308906
_cell_length_c       5.628426404491607
_cell_angle_alpha    60.000001621131936
_cell_angle_beta     60.000000807575866
_cell_angle_gamma    60.00000148911046

_space_group_name_H-M_alt    "P 1"
_space_group_IT_number       1

loop_
  _space_group_symop_operation_xyz
  'x, y, z'

loop_
  _atom_site_type_symbol
  _atom_site_label
  _atom_site_symmetry_multiplicity
  _atom_site_fract_x
  _atom_site_fract_y
  _atom_site_fract_z
  _atom_site_occupancy
  Pd  Pd1       1.0  0.2500000708762712  0.24999996338581632  0.2500000441206981  1.0000
  Pd  Pd2       1.0  0.749999943957337  0.7499999576134022  0.7500000517469111  1.0000
  Au  Au1       1.0  2.8391079346459853e-08  0.9999999456000292  9.451053393998765e-09  1.0000
  F   F1        1.0  0.25234128149494045  0.25234134390539215  0.7476586754028872  1.0000
  F   F2        1.0  0.7476586771573944  0.7476586902457637  0.2523413546687867  1.0000
  F   F3        1.0  0.747658654485479  0.25234138750122304  0.25234125088728554  1.0000
  F   F4        1.0  0.25234135700939936  0.7476586727619159  0.747658636658786  1.0000
  F   F5        1.0  0.25234136136235813  0.7476586367401441  0.25234134714915596  1.0000
  F   F6        1.0  0.7476586216596973  0.2523414104670041  0.7476586304524473  1.0000
