data_image0
_chemical_formula_structural       Pd2BeI6
_chemical_formula_sum              "Pd2 Be1 I6"
_cell_length_a       7.338769265586616
_cell_length_b       7.338769227996521
_cell_length_c       7.338769249365939
_cell_angle_alpha    60.0000016943233
_cell_angle_beta     60.00000141145668
_cell_angle_gamma    60.000000749464704

_space_group_name_H-M_alt    "P 1"
_space_group_IT_number       1

loop_
  _space_group_symop_operation_xyz
  'x, y, z'

loop_
  _atom_site_type_symbol
  _atom_site_label
  _atom_site_symmetry_multiplicity
  _atom_site_fract_x
  _atom_site_fract_y
  _atom_site_fract_z
  _atom_site_occupancy
  Pd  Pd1       1.0  0.2500000593315469  0.2500000453908525  0.24999992702261903  1.0000
  Pd  Pd2       1.0  0.7500000221001509  0.7500000327026464  0.7499999570793489  1.0000
  Be  Be1       1.0  1.908836776349381e-08  0.999999961616  0.9999999960215528  1.0000
  I   I1        1.0  0.2465602910523323  0.24656036100601073  0.7534396349210515  1.0000
  I   I2        1.0  0.7534396737086878  0.7534396469949675  0.24656034256251347  1.0000
  I   I3        1.0  0.7534396913531202  0.24656029897523324  0.246560341350923  1.0000
  I   I4        1.0  0.24656025112636515  0.7534396673040076  0.7534397703312499  1.0000
  I   I5        1.0  0.24656031097814002  0.7534397079753972  0.24656030696897843  1.0000
  I   I6        1.0  0.7534396920223091  0.24656027499253852  0.7534397265922033  1.0000
