data_image0
_chemical_formula_structural       Pd2BeCl6
_chemical_formula_sum              "Pd2 Be1 Cl6"
_cell_length_a       6.381506005905684
_cell_length_b       6.3815057774448904
_cell_length_c       6.381505983189654
_cell_angle_alpha    60.000001242481915
_cell_angle_beta     60.000003520213276
_cell_angle_gamma    60.000000980561744

_space_group_name_H-M_alt    "P 1"
_space_group_IT_number       1

loop_
  _space_group_symop_operation_xyz
  'x, y, z'

loop_
  _atom_site_type_symbol
  _atom_site_label
  _atom_site_symmetry_multiplicity
  _atom_site_fract_x
  _atom_site_fract_y
  _atom_site_fract_z
  _atom_site_occupancy
  Pd  Pd1       1.0  0.25000033540060107  0.25000037221775684  0.24999965516497913  1.0000
  Pd  Pd2       1.0  0.7499995963909107  0.7500008134181216  0.7500006149341989  1.0000
  Be  Be1       1.0  9.229099486995344e-09  5.373787553342335e-08  0.9999999826197677  1.0000
  Cl  Cl1       1.0  0.2460680669395297  0.24606734598952848  0.7539322456769523  1.0000
  Cl  Cl2       1.0  0.7539322531252671  0.7539322025603477  0.24606736856650524  1.0000
  Cl  Cl3       1.0  0.7539323068299285  0.24606763834666232  0.24606769445765017  1.0000
  Cl  Cl4       1.0  0.24606753941338733  0.7539320234365964  0.7539324369909147  1.0000
  Cl  Cl5       1.0  0.24606783286531636  0.7539321222292276  0.2460675803108725  1.0000
  Cl  Cl6       1.0  0.7539320476133196  0.2460674205630196  0.7539324462148838  1.0000
