data_image0
_chemical_formula_structural       Pd2CI6
_chemical_formula_sum              "Pd2 C1 I6"
_cell_length_a       7.28848520540838
_cell_length_b       7.288484971686448
_cell_length_c       7.28848476924765
_cell_angle_alpha    59.999995320827374
_cell_angle_beta     59.99999797893483
_cell_angle_gamma    59.999995998925904

_space_group_name_H-M_alt    "P 1"
_space_group_IT_number       1

loop_
  _space_group_symop_operation_xyz
  'x, y, z'

loop_
  _atom_site_type_symbol
  _atom_site_label
  _atom_site_symmetry_multiplicity
  _atom_site_fract_x
  _atom_site_fract_y
  _atom_site_fract_z
  _atom_site_occupancy
  Pd  Pd1       1.0  0.2500004296344781  0.25000029632512005  0.24999995576913028  1.0000
  Pd  Pd2       1.0  0.7500004170253387  0.7499996975835702  0.7499996970465052  1.0000
  C   C1        1.0  0.9999999182571514  2.1844987324440228e-08  0.9999999901601409  1.0000
  I   I1        1.0  0.2550056901631296  0.2550058571006822  0.7449941215351161  1.0000
  I   I2        1.0  0.7449941325544235  0.7449941905802921  0.2550059148355183  1.0000
  I   I3        1.0  0.7449939308826744  0.25500583428562884  0.2550058876708096  1.0000
  I   I4        1.0  0.2550057033549565  0.7449941276957911  0.7449943049979545  1.0000
  I   I5        1.0  0.2550056421430201  0.7449941614653786  0.2550058515594941  1.0000
  I   I6        1.0  0.7449941327111718  0.2550058206806414  0.7449942593466572  1.0000
