data_image0
_chemical_formula_structural       Pd2CdCl6
_chemical_formula_sum              "Pd2 Cd1 Cl6"
_cell_length_a       6.678849432602961
_cell_length_b       6.678849305677259
_cell_length_c       6.6788494032907
_cell_angle_alpha    60.0000006721984
_cell_angle_beta     60.0000001654523
_cell_angle_gamma    59.999998569357096

_space_group_name_H-M_alt    "P 1"
_space_group_IT_number       1

loop_
  _space_group_symop_operation_xyz
  'x, y, z'

loop_
  _atom_site_type_symbol
  _atom_site_label
  _atom_site_symmetry_multiplicity
  _atom_site_fract_x
  _atom_site_fract_y
  _atom_site_fract_z
  _atom_site_occupancy
  Pd  Pd1       1.0  0.24999987631112022  0.2500000582667436  0.25000016494846566  1.0000
  Pd  Pd2       1.0  0.7500001071412381  0.749999969418395  0.7500001293510001  1.0000
  Cd  Cd1       1.0  0.9999999790435524  1.1002600107364315e-08  1.5919510388341356e-07  1.0000
  Cl  Cl1       1.0  0.2646243921345334  0.26462424434739373  0.735375676131772  1.0000
  Cl  Cl2       1.0  0.7353757287572419  0.7353757081533203  0.2646242501558229  1.0000
  Cl  Cl3       1.0  0.7353757741051885  0.26462422971619026  0.2646242151996069  1.0000
  Cl  Cl4       1.0  0.2646242145878291  0.7353757044468612  0.7353756351325457  1.0000
  Cl  Cl5       1.0  0.26462415375295284  0.735375756996155  0.2646242882341089  1.0000
  Cl  Cl6       1.0  0.73537576428017  0.26462431653313534  0.7353755052859147  1.0000
