data_image0
_chemical_formula_structural       Pd2CrI6
_chemical_formula_sum              "Pd2 Cr1 I6"
_cell_length_a       7.489559124034987
_cell_length_b       7.489559247455356
_cell_length_c       7.489559196470437
_cell_angle_alpha    59.999998884182865
_cell_angle_beta     59.99999936561349
_cell_angle_gamma    59.99999901632279

_space_group_name_H-M_alt    "P 1"
_space_group_IT_number       1

loop_
  _space_group_symop_operation_xyz
  'x, y, z'

loop_
  _atom_site_type_symbol
  _atom_site_label
  _atom_site_symmetry_multiplicity
  _atom_site_fract_x
  _atom_site_fract_y
  _atom_site_fract_z
  _atom_site_occupancy
  Pd  Pd1       1.0  0.24999993664868486  0.25000011867501315  0.2500000014906075  1.0000
  Pd  Pd2       1.0  0.7500000222317449  0.7499999226785842  0.7500000415666453  1.0000
  Cr  Cr1       1.0  7.984489268459388e-08  0.999999936224483  2.4009922134626685e-08  1.0000
  I   I1        1.0  0.2478240468166436  0.24782409271225017  0.752175956980482  1.0000
  I   I2        1.0  0.7521759609802156  0.7521758897716403  0.24782406167918478  1.0000
  I   I3        1.0  0.7521759156012224  0.24782409122275578  0.2478240728621882  1.0000
  I   I4        1.0  0.24782409255368124  0.7521758994374834  0.7521758974689438  1.0000
  I   I5        1.0  0.24782406348326802  0.7521759359401916  0.24782402191230873  1.0000
  I   I6        1.0  0.7521758829696628  0.24782411031921622  0.7521759207608074  1.0000
