data_image0
_chemical_formula_structural       Pd2CCl6
_chemical_formula_sum              "Pd2 C1 Cl6"
_cell_length_a       6.641051979756275
_cell_length_b       6.641052193849439
_cell_length_c       6.6410515368280265
_cell_angle_alpha    59.99999575747469
_cell_angle_beta     59.99999706287699
_cell_angle_gamma    59.99999523880406

_space_group_name_H-M_alt    "P 1"
_space_group_IT_number       1

loop_
  _space_group_symop_operation_xyz
  'x, y, z'

loop_
  _atom_site_type_symbol
  _atom_site_label
  _atom_site_symmetry_multiplicity
  _atom_site_fract_x
  _atom_site_fract_y
  _atom_site_fract_z
  _atom_site_occupancy
  Pd  Pd1       1.0  0.25000018007656244  0.24999991081990167  0.2499998601018112  1.0000
  Pd  Pd2       1.0  0.7499998726891521  0.7500002119525377  0.7499997511243509  1.0000
  C   C1        1.0  0.9999956462449842  3.494765519941885e-06  0.9999938838445669  1.0000
  Cl  Cl1       1.0  0.22819443025669656  0.2281939339568206  0.7718061443766198  1.0000
  Cl  Cl2       1.0  0.771806238481103  0.7718059214060707  0.22819441136699128  1.0000
  Cl  Cl3       1.0  0.7718056671692961  0.22819426540491008  0.22819490584603355  1.0000
  Cl  Cl4       1.0  0.2281938570850633  0.7718062796899351  0.7718067355711379  1.0000
  Cl  Cl5       1.0  0.22819611067341553  0.7718040267808987  0.22819621060602877  1.0000
  Cl  Cl6       1.0  0.7718079101054558  0.22819197972969393  0.7718081818304503  1.0000
