data_image0
_chemical_formula_structural       Pd2CrCl6
_chemical_formula_sum              "Pd2 Cr1 Cl6"
_cell_length_a       6.664558611593021
_cell_length_b       6.664558788983675
_cell_length_c       6.6645589005998085
_cell_angle_alpha    59.99999797602886
_cell_angle_beta     60.00000022474682
_cell_angle_gamma    60.0000008521363

_space_group_name_H-M_alt    "P 1"
_space_group_IT_number       1

loop_
  _space_group_symop_operation_xyz
  'x, y, z'

loop_
  _atom_site_type_symbol
  _atom_site_label
  _atom_site_symmetry_multiplicity
  _atom_site_fract_x
  _atom_site_fract_y
  _atom_site_fract_z
  _atom_site_occupancy
  Pd  Pd1       1.0  0.24999983463960296  0.2500002724900798  0.25000003827671047  1.0000
  Pd  Pd2       1.0  0.7499997963019196  0.7500001430349335  0.7500005144221815  1.0000
  Cr  Cr1       1.0  4.9545726519620155e-08  0.9999999761099223  0.9999999661655349  1.0000
  Cl  Cl1       1.0  0.24242534867101098  0.2424252461272566  0.7575746323353543  1.0000
  Cl  Cl2       1.0  0.7575747842949437  0.7575746768946173  0.2424250918424587  1.0000
  Cl  Cl3       1.0  0.7575747206853676  0.24242529504717655  0.2424252102404668  1.0000
  Cl  Cl4       1.0  0.24242537789291213  0.7575745232258858  0.7575747365539787  1.0000
  Cl  Cl5       1.0  0.24242532907718947  0.7575746802183361  0.2424251532610602  1.0000
  Cl  Cl6       1.0  0.757574752454335  0.2424251839971891  0.757574617034296  1.0000
