data_image0
_chemical_formula_structural       Pd2CuI6
_chemical_formula_sum              "Pd2 Cu1 I6"
_cell_length_a       7.315779696885277
_cell_length_b       7.3157796474601025
_cell_length_c       7.315779444066331
_cell_angle_alpha    59.99999993634954
_cell_angle_beta     60.000000791412674
_cell_angle_gamma    60.00000042068644

_space_group_name_H-M_alt    "P 1"
_space_group_IT_number       1

loop_
  _space_group_symop_operation_xyz
  'x, y, z'

loop_
  _atom_site_type_symbol
  _atom_site_label
  _atom_site_symmetry_multiplicity
  _atom_site_fract_x
  _atom_site_fract_y
  _atom_site_fract_z
  _atom_site_occupancy
  Pd  Pd1       1.0  0.25000008080300273  0.2499999518090227  0.2499999849943053  1.0000
  Pd  Pd2       1.0  0.7500000348245192  0.7500001467228927  0.7499999787388472  1.0000
  Cu  Cu1       1.0  0.9999999968432606  1.5899425207000925e-16  0.9999999838085611  1.0000
  I   I1        1.0  0.255527549130164  0.2555275279796017  0.7444724637786556  1.0000
  I   I2        1.0  0.7444724353833171  0.7444724382973126  0.25552753322161803  1.0000
  I   I3        1.0  0.7444724499149532  0.2555275227316223  0.25552756667201987  1.0000
  I   I4        1.0  0.25552750459307577  0.7444724720052287  0.7444724488708202  1.0000
  I   I5        1.0  0.2555275212592097  0.7444724650869541  0.25552755202078825  1.0000
  I   I6        1.0  0.7444724338397114  0.255527471055909  0.7444724815883332  1.0000
