data_image0
_chemical_formula_structural       Pd2CoSe6
_chemical_formula_sum              "Pd2 Co1 Se6"
_cell_length_a       6.17747607539392
_cell_length_b       6.177476113413823
_cell_length_c       6.177476108686346
_cell_angle_alpha    60.00000056155718
_cell_angle_beta     60.00000055432399
_cell_angle_gamma    60.00000047153883

_space_group_name_H-M_alt    "P 1"
_space_group_IT_number       1

loop_
  _space_group_symop_operation_xyz
  'x, y, z'

loop_
  _atom_site_type_symbol
  _atom_site_label
  _atom_site_symmetry_multiplicity
  _atom_site_fract_x
  _atom_site_fract_y
  _atom_site_fract_z
  _atom_site_occupancy
  Pd  Pd1       1.0  0.25000006034055705  0.2500001286425122  0.24999986673311855  1.0000
  Pd  Pd2       1.0  0.7500000769389261  0.7499999299301144  0.7500000307863567  1.0000
  Co  Co1       1.0  0.9999999562338979  7.930389944485941e-09  1.306150361714555e-08  1.0000
  Se  Se1       1.0  0.26746071343996014  0.26746076725921913  0.7325393077537731  1.0000
  Se  Se2       1.0  0.7325393176541191  0.7325392397658731  0.2674607398586702  1.0000
  Se  Se3       1.0  0.7325392232299878  0.2674607545757294  0.267460700274733  1.0000
  Se  Se4       1.0  0.26746071542402766  0.73253919891923  0.7325392972952174  1.0000
  Se  Se5       1.0  0.2674607312900143  0.7325392251358808  0.2674607329374517  1.0000
  Se  Se6       1.0  0.7325392026245537  0.2674607481850538  0.7325392959400528  1.0000
