data_image0
_chemical_formula_structural       Pd2CoO6
_chemical_formula_sum              "Pd2 Co1 O6"
_cell_length_a       5.143606856039205
_cell_length_b       5.143606673682356
_cell_length_c       5.14360687935268
_cell_angle_alpha    60.000000087837975
_cell_angle_beta     59.99999982091253
_cell_angle_gamma    60.000000248660136

_space_group_name_H-M_alt    "P 1"
_space_group_IT_number       1

loop_
  _space_group_symop_operation_xyz
  'x, y, z'

loop_
  _atom_site_type_symbol
  _atom_site_label
  _atom_site_symmetry_multiplicity
  _atom_site_fract_x
  _atom_site_fract_y
  _atom_site_fract_z
  _atom_site_occupancy
  Pd  Pd1       1.0  0.2500007698923706  0.24999969712852235  0.2500004049031076  1.0000
  Pd  Pd2       1.0  0.7500001876707288  0.7500009653122578  0.7499988657763711  1.0000
  Co  Co1       1.0  0.9999999656686203  0.9999999952377971  2.9267596355896564e-08  1.0000
  O   O1        1.0  0.2486576106334769  0.24865727833145557  0.7513422044020384  1.0000
  O   O2        1.0  0.7513423371344816  0.7513426554923024  0.24865766135681028  1.0000
  O   O3        1.0  0.7513421506437981  0.24865696465773232  0.24865794925177084  1.0000
  O   O4        1.0  0.24865745050339266  0.7513427024826764  0.7513424428493289  1.0000
  O   O5        1.0  0.2486570923053422  0.7513424777089603  0.24865779152220113  1.0000
  O   O6        1.0  0.7513424410388732  0.2486572918188059  0.7513426280024121  1.0000
