data_image0
_chemical_formula_structural       Pd2CrS6
_chemical_formula_sum              "Pd2 Cr1 S6"
_cell_length_a       5.847386108920057
_cell_length_b       5.847385527741518
_cell_length_c       5.847385934730336
_cell_angle_alpha    59.99999726448093
_cell_angle_beta     60.000000538292745
_cell_angle_gamma    60.00000042857947

_space_group_name_H-M_alt    "P 1"
_space_group_IT_number       1

loop_
  _space_group_symop_operation_xyz
  'x, y, z'

loop_
  _atom_site_type_symbol
  _atom_site_label
  _atom_site_symmetry_multiplicity
  _atom_site_fract_x
  _atom_site_fract_y
  _atom_site_fract_z
  _atom_site_occupancy
  Pd  Pd1       1.0  0.2500000097100516  0.25000003612978855  0.24999998783874017  1.0000
  Pd  Pd2       1.0  0.7500003347340584  0.7500001335235819  0.7500000854550299  1.0000
  Cr  Cr1       1.0  0.9999999872344293  0.9999999790548285  0.9999999569995649  1.0000
  S   S1        1.0  0.2637448250008702  0.26374493082220335  0.736255069930149  1.0000
  S   S2        1.0  0.7362551434302272  0.7362550398520279  0.263744781230262  1.0000
  S   S3        1.0  0.7362551217816418  0.2637449348685266  0.26374494596828324  1.0000
  S   S4        1.0  0.2637447219608239  0.7362551195863843  0.7362550197052282  1.0000
  S   S5        1.0  0.2637448787100919  0.7362550289492286  0.2637449828901301  1.0000
  S   S6        1.0  0.7362549776030036  0.26374478044717947  0.7362551759847844  1.0000
