data_image0
_chemical_formula_structural       Pd2CaBr6
_chemical_formula_sum              "Pd2 Ca1 Br6"
_cell_length_a       7.3149199257861275
_cell_length_b       7.3149201130829935
_cell_length_c       7.314920106447843
_cell_angle_alpha    59.99999970854329
_cell_angle_beta     59.99999986737774
_cell_angle_gamma    60.000000636272354

_space_group_name_H-M_alt    "P 1"
_space_group_IT_number       1

loop_
  _space_group_symop_operation_xyz
  'x, y, z'

loop_
  _atom_site_type_symbol
  _atom_site_label
  _atom_site_symmetry_multiplicity
  _atom_site_fract_x
  _atom_site_fract_y
  _atom_site_fract_z
  _atom_site_occupancy
  Pd  Pd1       1.0  0.24999992848920163  0.25000005191562136  0.2500000168778707  1.0000
  Pd  Pd2       1.0  0.7500000285050334  0.7499999380864807  0.7499998889345778  1.0000
  Ca  Ca1       1.0  0.999999922204873  0.9999999681880968  1.2589109914223334e-07  1.0000
  Br  Br1       1.0  0.26578033089478004  0.26578036485498363  0.734219638301915  1.0000
  Br  Br2       1.0  0.7342197332961735  0.7342197155598931  0.26578035462716176  1.0000
  Br  Br3       1.0  0.7342196733622562  0.26578030638587835  0.2657803606341218  1.0000
  Br  Br4       1.0  0.2657803850589671  0.7342196350612145  0.7342196185383698  1.0000
  Br  Br5       1.0  0.26578032485664776  0.7342196496998787  0.26578035283369966  1.0000
  Br  Br6       1.0  0.7342196725097379  0.26578037546274635  0.7342196464510292  1.0000
