data_image0
_chemical_formula_structural       Pd2CrF6
_chemical_formula_sum              "Pd2 Cr1 F6"
_cell_length_a       5.352979677609981
_cell_length_b       5.3529791826736055
_cell_length_c       5.3529790885434
_cell_angle_alpha    59.99999859794162
_cell_angle_beta     59.99999859866301
_cell_angle_gamma    59.99999671209102

_space_group_name_H-M_alt    "P 1"
_space_group_IT_number       1

loop_
  _space_group_symop_operation_xyz
  'x, y, z'

loop_
  _atom_site_type_symbol
  _atom_site_label
  _atom_site_symmetry_multiplicity
  _atom_site_fract_x
  _atom_site_fract_y
  _atom_site_fract_z
  _atom_site_occupancy
  Pd  Pd1       1.0  0.25000008092543174  0.24999987728307127  0.25000012638384445  1.0000
  Pd  Pd2       1.0  0.7499999193318355  0.7500000780031236  0.7499998769208157  1.0000
  Cr  Cr1       1.0  0.9999999954240619  1.3727812485182722e-08  4.764655953877884e-09  1.0000
  F   F1        1.0  0.2484071177498832  0.24840712672859275  0.7515928966019705  1.0000
  F   F2        1.0  0.7515928335030315  0.7515928720290084  0.24840721408380767  1.0000
  F   F3        1.0  0.7515927539167816  0.2484070519658337  0.24840723456190356  1.0000
  F   F4        1.0  0.24840727220344103  0.7515929422158296  0.7515927625172042  1.0000
  F   F5        1.0  0.24840710572985347  0.7515929164898763  0.2484071268130219  1.0000
  F   F6        1.0  0.7515928939591051  0.24840714404288103  0.7515927961307302  1.0000
