data_image0
_chemical_formula_structural       Pd2CF6
_chemical_formula_sum              "Pd2 C1 F6"
_cell_length_a       4.915951123052696
_cell_length_b       4.915951300961759
_cell_length_c       4.915951292992682
_cell_angle_alpha    59.99999882843257
_cell_angle_beta     59.99999798975312
_cell_angle_gamma    59.99999813042241

_space_group_name_H-M_alt    "P 1"
_space_group_IT_number       1

loop_
  _space_group_symop_operation_xyz
  'x, y, z'

loop_
  _atom_site_type_symbol
  _atom_site_label
  _atom_site_symmetry_multiplicity
  _atom_site_fract_x
  _atom_site_fract_y
  _atom_site_fract_z
  _atom_site_occupancy
  Pd  Pd1       1.0  0.2500000012269461  0.25000001143544903  0.2500000656943172  1.0000
  Pd  Pd2       1.0  0.7500000548352754  0.7499999794962298  0.749999973115227  1.0000
  C   C1        1.0  0.9999999911499471  1.2456844782082976e-08  5.1085655310403314e-08  1.0000
  F   F1        1.0  0.2240828758364089  0.22408286002524547  0.7759171726700297  1.0000
  F   F2        1.0  0.7759170756169486  0.7759171558201257  0.22408287954257536  1.0000
  F   F3        1.0  0.7759170891836382  0.2240829055928827  0.22408293847995744  1.0000
  F   F4        1.0  0.224082843144776  0.7759172099072508  0.7759170409206287  1.0000
  F   F5        1.0  0.22408285839955944  0.775917058808168  0.2240829188118738  1.0000
  F   F6        1.0  0.7759171428322887  0.22408289226160794  0.7759170859760379  1.0000
