data_image0
_chemical_formula_structural       Pd2CS6
_chemical_formula_sum              "Pd2 C1 S6"
_cell_length_a       5.752052453028717
_cell_length_b       5.7520525392440085
_cell_length_c       5.752052341329733
_cell_angle_alpha    60.000000643585004
_cell_angle_beta     60.00000122298509
_cell_angle_gamma    60.00000096241065

_space_group_name_H-M_alt    "P 1"
_space_group_IT_number       1

loop_
  _space_group_symop_operation_xyz
  'x, y, z'

loop_
  _atom_site_type_symbol
  _atom_site_label
  _atom_site_symmetry_multiplicity
  _atom_site_fract_x
  _atom_site_fract_y
  _atom_site_fract_z
  _atom_site_occupancy
  Pd  Pd1       1.0  0.2500002426061505  0.24999985659575116  0.24999996261552077  1.0000
  Pd  Pd2       1.0  0.7500000398792738  0.7500001340334674  0.7500000887738318  1.0000
  C   C1        1.0  1.2599083904025985e-06  0.9999990929475967  0.9999995297638405  1.0000
  S   S1        1.0  0.24301651421920714  0.24301651793621953  0.7569834768950211  1.0000
  S   S2        1.0  0.7569830698342969  0.7569833939114526  0.24301666060033789  1.0000
  S   S3        1.0  0.7569829959846799  0.24301691281993165  0.24301697942707504  1.0000
  S   S4        1.0  0.24301624494269117  0.7569837634216652  0.7569836671774864  1.0000
  S   S5        1.0  0.24301646563985183  0.7569836162557153  0.24301639844532508  1.0000
  S   S6        1.0  0.7569831645780225  0.24301671717969858  0.7569832078887819  1.0000
