data_image0
_chemical_formula_structural       Pd2CI6
_chemical_formula_sum              "Pd2 C1 I6"
_cell_length_a       7.287362958932556
_cell_length_b       7.287362892757099
_cell_length_c       7.28736280521155
_cell_angle_alpha    60.00000049147068
_cell_angle_beta     60.000000070825386
_cell_angle_gamma    59.99999988032936

_space_group_name_H-M_alt    "P 1"
_space_group_IT_number       1

loop_
  _space_group_symop_operation_xyz
  'x, y, z'

loop_
  _atom_site_type_symbol
  _atom_site_label
  _atom_site_symmetry_multiplicity
  _atom_site_fract_x
  _atom_site_fract_y
  _atom_site_fract_z
  _atom_site_occupancy
  Pd  Pd1       1.0  0.25000005128629155  0.24999987558602343  0.25000009283345304  1.0000
  Pd  Pd2       1.0  0.7500000435598481  0.7500000099444621  0.7499998772146417  1.0000
  C   C1        1.0  0.9999999474251655  0.9999998487422147  4.202756481994324e-07  1.0000
  I   I1        1.0  0.25523355335167547  0.25523355132148523  0.744766482970801  1.0000
  I   I2        1.0  0.7447665371526819  0.7447665896665957  0.25523349050980887  1.0000
  I   I3        1.0  0.7447665380725834  0.2552333946016922  0.2552334373943101  1.0000
  I   I4        1.0  0.25523356572049055  0.744766492609435  0.7447663914883826  1.0000
  I   I5        1.0  0.25523333646238383  0.7447666287402579  0.2552333922362231  1.0000
  I   I6        1.0  0.7447664374555744  0.25523360636377884  0.7447663905871341  1.0000
