data_image0
_chemical_formula_structural       Pd2CaCl6
_chemical_formula_sum              "Pd2 Ca1 Cl6"
_cell_length_a       6.8261814366626785
_cell_length_b       6.826181285996484
_cell_length_c       6.826181020954037
_cell_angle_alpha    59.999999115467546
_cell_angle_beta     60.00000107375883
_cell_angle_gamma    59.999999950044995

_space_group_name_H-M_alt    "P 1"
_space_group_IT_number       1

loop_
  _space_group_symop_operation_xyz
  'x, y, z'

loop_
  _atom_site_type_symbol
  _atom_site_label
  _atom_site_symmetry_multiplicity
  _atom_site_fract_x
  _atom_site_fract_y
  _atom_site_fract_z
  _atom_site_occupancy
  Pd  Pd1       1.0  0.250000363810179  0.2499998038910786  0.2499998120525924  1.0000
  Pd  Pd2       1.0  0.7499997779345183  0.7500001652319506  0.7500001702602953  1.0000
  Ca  Ca1       1.0  0.999999982401171  0.9999999766755634  0.9999999999523618  1.0000
  Cl  Cl1       1.0  0.2666297618273147  0.26662961646857264  0.7333703249553589  1.0000
  Cl  Cl2       1.0  0.7333702863500361  0.7333704100684565  0.26662959486206395  1.0000
  Cl  Cl3       1.0  0.7333702434692254  0.266629800267778  0.2666297288675736  1.0000
  Cl  Cl4       1.0  0.2666297644181334  0.7333702101215622  0.7333702850913486  1.0000
  Cl  Cl5       1.0  0.2666297291912909  0.7333703240012017  0.26662974031689457  1.0000
  Cl  Cl6       1.0  0.7333701005851285  0.2666296827997627  0.733370346912311  1.0000
