data_image0
_chemical_formula_structural       Pd2CrCl6
_chemical_formula_sum              "Pd2 Cr1 Cl6"
_cell_length_a       6.663690356616687
_cell_length_b       6.66369016480984
_cell_length_c       6.6636922688810065
_cell_angle_alpha    59.9999907297415
_cell_angle_beta     59.99999269303862
_cell_angle_gamma    59.99999312855995

_space_group_name_H-M_alt    "P 1"
_space_group_IT_number       1

loop_
  _space_group_symop_operation_xyz
  'x, y, z'

loop_
  _atom_site_type_symbol
  _atom_site_label
  _atom_site_symmetry_multiplicity
  _atom_site_fract_x
  _atom_site_fract_y
  _atom_site_fract_z
  _atom_site_occupancy
  Pd  Pd1       1.0  0.2500000877315977  0.25000035371486434  0.2499997939638082  1.0000
  Pd  Pd2       1.0  0.7499998763220481  0.7499999032436004  0.7500001407722511  1.0000
  Cr  Cr1       1.0  1.6226101102976623e-08  0.999999966917114  0.9999999454002718  1.0000
  Cl  Cl1       1.0  0.24246574098474774  0.24246586878320256  0.75753416392525  1.0000
  Cl  Cl2       1.0  0.7575342928085302  0.7575340022082632  0.24246585989369168  1.0000
  Cl  Cl3       1.0  0.7575340819578457  0.2424658753413917  0.2424657712829799  1.0000
  Cl  Cl4       1.0  0.24246581096601333  0.7575341739300694  0.757534272848081  1.0000
  Cl  Cl5       1.0  0.24246592805466347  0.7575340849422025  0.2424657154874875  1.0000
  Cl  Cl6       1.0  0.7575341638498129  0.24246576766988218  0.7575343559956752  1.0000
