data_image0
_chemical_formula_structural       Pd2CoI6
_chemical_formula_sum              "Pd2 Co1 I6"
_cell_length_a       7.32873307745665
_cell_length_b       7.328732914606347
_cell_length_c       7.3287331189198825
_cell_angle_alpha    60.00000035930079
_cell_angle_beta     60.00000051521164
_cell_angle_gamma    60.0000007731307

_space_group_name_H-M_alt    "P 1"
_space_group_IT_number       1

loop_
  _space_group_symop_operation_xyz
  'x, y, z'

loop_
  _atom_site_type_symbol
  _atom_site_label
  _atom_site_symmetry_multiplicity
  _atom_site_fract_x
  _atom_site_fract_y
  _atom_site_fract_z
  _atom_site_occupancy
  Pd  Pd1       1.0  0.2500000143596602  0.24999999375397816  0.24999991516663259  1.0000
  Pd  Pd2       1.0  0.749999975170687  0.749999934469596  0.7499999693182751  1.0000
  Co  Co1       1.0  2.576633174018773e-08  0.9999999983288455  2.3284236167694756e-10  1.0000
  I   I1        1.0  0.24920860389100039  0.24920862924533185  0.7507914173344653  1.0000
  I   I2        1.0  0.7507913918760752  0.7507914126167847  0.24920861461563937  1.0000
  I   I3        1.0  0.7507914068755384  0.24920860450519391  0.24920860619382718  1.0000
  I   I4        1.0  0.24920858788940697  0.7507914072761329  0.7507914412977372  1.0000
  I   I5        1.0  0.2492086036560171  0.7507914013206018  0.24920860886227825  1.0000
  I   I6        1.0  0.7507913905518768  0.2492086121318797  0.7507914271562961  1.0000
