data_image0
_chemical_formula_structural       Pd2CrBr6
_chemical_formula_sum              "Pd2 Cr1 Br6"
_cell_length_a       6.988881157238199
_cell_length_b       6.988881065241357
_cell_length_c       6.988881085755429
_cell_angle_alpha    59.999999732891695
_cell_angle_beta     60.00000106753033
_cell_angle_gamma    60.00000147190656

_space_group_name_H-M_alt    "P 1"
_space_group_IT_number       1

loop_
  _space_group_symop_operation_xyz
  'x, y, z'

loop_
  _atom_site_type_symbol
  _atom_site_label
  _atom_site_symmetry_multiplicity
  _atom_site_fract_x
  _atom_site_fract_y
  _atom_site_fract_z
  _atom_site_occupancy
  Pd  Pd1       1.0  0.2499999718002332  0.25000003844685376  0.25000001984554715  1.0000
  Pd  Pd2       1.0  0.7500001992463928  0.7500000172050969  0.749999929479579  1.0000
  Cr  Cr1       1.0  0.9999999054754923  0.9999999316556537  0.9999999369191619  1.0000
  Br  Br1       1.0  0.24372746684357185  0.24372753043158846  0.7562724915529859  1.0000
  Br  Br2       1.0  0.7562724813569668  0.7562725147058438  0.24372746570828244  1.0000
  Br  Br3       1.0  0.7562724408132165  0.2437275885064588  0.24372750526220102  1.0000
  Br  Br4       1.0  0.24372743280364362  0.7562725267277361  0.7562725300772675  1.0000
  Br  Br5       1.0  0.2437275783727327  0.7562723959439857  0.24372755074324187  1.0000
  Br  Br6       1.0  0.7562725256383422  0.2437274494176708  0.7562725873243542  1.0000
