data_image0
_chemical_formula_structural       Pd2CoF6
_chemical_formula_sum              "Pd2 Co1 F6"
_cell_length_a       5.1859217014781525
_cell_length_b       5.185921783749678
_cell_length_c       5.185921744715348
_cell_angle_alpha    59.99999934754079
_cell_angle_beta     60.0000000390325
_cell_angle_gamma    59.99999997990852

_space_group_name_H-M_alt    "P 1"
_space_group_IT_number       1

loop_
  _space_group_symop_operation_xyz
  'x, y, z'

loop_
  _atom_site_type_symbol
  _atom_site_label
  _atom_site_symmetry_multiplicity
  _atom_site_fract_x
  _atom_site_fract_y
  _atom_site_fract_z
  _atom_site_occupancy
  Pd  Pd1       1.0  0.2499999930428692  0.2499999552649482  0.2500000512792876  1.0000
  Pd  Pd2       1.0  0.7499999946221558  0.7500000263885749  0.7499999404548843  1.0000
  Co  Co1       1.0  0.9999999166005873  1.700404168523685e-07  1.2636967764595077e-07  1.0000
  F   F1        1.0  0.2468459500249186  0.24684604931760384  0.7531539578308746  1.0000
  F   F2        1.0  0.7531539875086942  0.7531538756557798  0.24684607766758587  1.0000
  F   F3        1.0  0.7531540361120712  0.24684600282437782  0.24684595916979743  1.0000
  F   F4        1.0  0.24684608856835394  0.7531539552124218  0.7531538736652685  1.0000
  F   F5        1.0  0.24684594462541518  0.7531539680737691  0.246846036917399  1.0000
  F   F6        1.0  0.7531540878418668  0.24684599940971866  0.7531539819232076  1.0000
