data_image0
_chemical_formula_structural       Pd2CF6
_chemical_formula_sum              "Pd2 C1 F6"
_cell_length_a       4.914704825361324
_cell_length_b       4.9147052570623195
_cell_length_c       4.914704895122034
_cell_angle_alpha    59.999996708634015
_cell_angle_beta     59.99999752736661
_cell_angle_gamma    59.99999837979192

_space_group_name_H-M_alt    "P 1"
_space_group_IT_number       1

loop_
  _space_group_symop_operation_xyz
  'x, y, z'

loop_
  _atom_site_type_symbol
  _atom_site_label
  _atom_site_symmetry_multiplicity
  _atom_site_fract_x
  _atom_site_fract_y
  _atom_site_fract_z
  _atom_site_occupancy
  Pd  Pd1       1.0  0.2499999975101732  0.250000060018131  0.25000000595916755  1.0000
  Pd  Pd2       1.0  0.7500000635892203  0.7499999034423203  0.7499999782244882  1.0000
  C   C1        1.0  0.9999999324106777  1.2460003683819093e-08  3.977292076463894e-08  1.0000
  F   F1        1.0  0.22416334395607876  0.2241635836823118  0.7758365912222502  1.0000
  F   F2        1.0  0.7758364742671989  0.7758364669981594  0.22416361321916475  1.0000
  F   F3        1.0  0.7758363991073267  0.22416361807473809  0.2241637185377644  1.0000
  F   F4        1.0  0.22416383526332265  0.7758361709456665  0.7758361644947834  1.0000
  F   F5        1.0  0.22416346571976845  0.7758364742172364  0.22416366431324508  1.0000
  F   F6        1.0  0.7758364546916123  0.2241637209992852  0.7758362458504314  1.0000
