data_image0
_chemical_formula_structural       Pd2CoCl6
_chemical_formula_sum              "Pd2 Co1 Cl6"
_cell_length_a       6.631441568069702
_cell_length_b       6.631441496822323
_cell_length_c       6.631441216060403
_cell_angle_alpha    59.999998976087205
_cell_angle_beta     60.00000076461412
_cell_angle_gamma    59.999999736206775

_space_group_name_H-M_alt    "P 1"
_space_group_IT_number       1

loop_
  _space_group_symop_operation_xyz
  'x, y, z'

loop_
  _atom_site_type_symbol
  _atom_site_label
  _atom_site_symmetry_multiplicity
  _atom_site_fract_x
  _atom_site_fract_y
  _atom_site_fract_z
  _atom_site_occupancy
  Pd  Pd1       1.0  0.24999968833026423  0.2499999705287688  0.25000053235802244  1.0000
  Pd  Pd2       1.0  0.7500002903366175  0.7500000593363926  0.7500001836856074  1.0000
  Co  Co1       1.0  0.9999999114074406  0.9999999889187462  0.9999999925341301  1.0000
  Cl  Cl1       1.0  0.23759381711591723  0.2375937864641435  0.7624060690172948  1.0000
  Cl  Cl2       1.0  0.7624062081422494  0.7624062655635521  0.2375935842153668  1.0000
  Cl  Cl3       1.0  0.7624062621290222  0.23759399393123684  0.23759369567849706  1.0000
  Cl  Cl4       1.0  0.2375936828172312  0.7624062520184146  0.7624060545618586  1.0000
  Cl  Cl5       1.0  0.2375937435351456  0.7624060594732612  0.2375938592175056  1.0000
  Cl  Cl6       1.0  0.7624064097549531  0.23759363980115292  0.7624060134415519  1.0000
