data_image0
_chemical_formula_structural       Pd2CO6
_chemical_formula_sum              "Pd2 C1 O6"
_cell_length_a       3.5393831244338467
_cell_length_b       2.7094618262413523
_cell_length_c       2.5121273046577732
_cell_angle_alpha    43.6703326348318
_cell_angle_beta     69.10283737204801
_cell_angle_gamma    65.24849556151688

_space_group_name_H-M_alt    "P 1"
_space_group_IT_number       1

loop_
  _space_group_symop_operation_xyz
  'x, y, z'

loop_
  _atom_site_type_symbol
  _atom_site_label
  _atom_site_symmetry_multiplicity
  _atom_site_fract_x
  _atom_site_fract_y
  _atom_site_fract_z
  _atom_site_occupancy
  Pd  Pd1       1.0  0.3441309381931234  0.6406399445006414  0.8820272267229355  1.0000
  Pd  Pd2       1.0  0.6074011718668175  0.7356777553209041  0.4816211566861084  1.0000
  C   C1        1.0  0.056718324277484904  0.599335047421915  0.9010184078230733  1.0000
  O   O1        1.0  0.9867958762419868  0.7713407398720818  0.8936643530410722  1.0000
  O   O2        1.0  0.21765265019926483  0.26460256977707175  0.17949937320523895  1.0000
  O   O3        1.0  0.4105260446500225  0.5129953701681973  0.8228414183904337  1.0000
  O   O4        1.0  0.6917521422271441  0.7149443312324985  0.3059388694226648  1.0000
  O   O5        1.0  0.17322878491378318  0.5525345480555132  0.19616247855403302  1.0000
  O   O6        1.0  0.5797713616513219  0.23234249469367665  0.2734128309297188  1.0000
