data_image0
_chemical_formula_structural       Pd2CoI6
_chemical_formula_sum              "Pd2 Co1 I6"
_cell_length_a       7.328574269322416
_cell_length_b       7.328574434416944
_cell_length_c       7.3285743656526
_cell_angle_alpha    59.99999911890503
_cell_angle_beta     60.00000004172307
_cell_angle_gamma    59.99999944612897

_space_group_name_H-M_alt    "P 1"
_space_group_IT_number       1

loop_
  _space_group_symop_operation_xyz
  'x, y, z'

loop_
  _atom_site_type_symbol
  _atom_site_label
  _atom_site_symmetry_multiplicity
  _atom_site_fract_x
  _atom_site_fract_y
  _atom_site_fract_z
  _atom_site_occupancy
  Pd  Pd1       1.0  0.2499999716734127  0.25000002962071904  0.24999998942934817  1.0000
  Pd  Pd2       1.0  0.7499999577557882  0.7499999133870849  0.7500000251061543  1.0000
  Co  Co1       1.0  0.9999999917396213  2.0054293740086034e-08  1.0477304742793265e-08  1.0000
  I   I1        1.0  0.24927346391885316  0.2492733980808319  0.7507265737045837  1.0000
  I   I2        1.0  0.7507265840309216  0.7507265816931762  0.24927341913292625  1.0000
  I   I3        1.0  0.7507266124191072  0.2492734275273013  0.24927339111476732  1.0000
  I   I4        1.0  0.24927344227821246  0.7507265839993387  0.7507265824726541  1.0000
  I   I5        1.0  0.24927339682349878  0.7507265666075512  0.24927341349943838  1.0000
  I   I6        1.0  0.7507265812093923  0.24927347165814784  0.7507265946023205  1.0000
