data_image0
_chemical_formula_structural       Pd2CaI6
_chemical_formula_sum              "Pd2 Ca1 I6"
_cell_length_a       7.916025254637478
_cell_length_b       7.916025236413884
_cell_length_c       7.91602500421087
_cell_angle_alpha    60.00000048104635
_cell_angle_beta     60.000000977251666
_cell_angle_gamma    60.00000044117008

_space_group_name_H-M_alt    "P 1"
_space_group_IT_number       1

loop_
  _space_group_symop_operation_xyz
  'x, y, z'

loop_
  _atom_site_type_symbol
  _atom_site_label
  _atom_site_symmetry_multiplicity
  _atom_site_fract_x
  _atom_site_fract_y
  _atom_site_fract_z
  _atom_site_occupancy
  Pd  Pd1       1.0  0.2500000189044689  0.250000026684274  0.24999994556613905  1.0000
  Pd  Pd2       1.0  0.750000001417319  0.7499999965055603  0.7500000071809149  1.0000
  Ca  Ca1       1.0  1.8712663313967187e-08  0.9999999876226282  0.999999951354984  1.0000
  I   I1        1.0  0.27192248388804  0.27192254225604484  0.7280774940910288  1.0000
  I   I2        1.0  0.7280775076139395  0.7280774623677311  0.27192252277328766  1.0000
  I   I3        1.0  0.7280774493856966  0.2719225546838711  0.27192254062696275  1.0000
  I   I4        1.0  0.2719225125734191  0.7280774948078784  0.7280774824706618  1.0000
  I   I5        1.0  0.27192253038867575  0.7280774554450671  0.2719225318744096  1.0000
  I   I6        1.0  0.7280774770274401  0.27192247955599125  0.728077524476801  1.0000
