data_image0
_chemical_formula_structural       Pd2CBr6
_chemical_formula_sum              "Pd2 C1 Br6"
_cell_length_a       6.91335409763529
_cell_length_b       6.913354245693405
_cell_length_c       6.913354279891046
_cell_angle_alpha    60.000000496033564
_cell_angle_beta     59.99999958513895
_cell_angle_gamma    59.999998620284856

_space_group_name_H-M_alt    "P 1"
_space_group_IT_number       1

loop_
  _space_group_symop_operation_xyz
  'x, y, z'

loop_
  _atom_site_type_symbol
  _atom_site_label
  _atom_site_symmetry_multiplicity
  _atom_site_fract_x
  _atom_site_fract_y
  _atom_site_fract_z
  _atom_site_occupancy
  Pd  Pd1       1.0  0.250000160934909  0.25000005266708375  0.2499999893380203  1.0000
  Pd  Pd2       1.0  0.7500001976991623  0.7500001314277994  0.7500001817126019  1.0000
  C   C1        1.0  1.5141929483742862e-07  0.9999999716549759  1.742384283466456e-07  1.0000
  Br  Br1       1.0  0.23750218841282722  0.23750223597368167  0.7624976972527654  1.0000
  Br  Br2       1.0  0.7624977519881452  0.7624977497060517  0.23750210083185413  1.0000
  Br  Br3       1.0  0.7624976870224381  0.23750223725266667  0.23750215477709882  1.0000
  Br  Br4       1.0  0.23750209227648092  0.7624977005948458  0.7624978070801667  1.0000
  Br  Br5       1.0  0.23750210763305257  0.7624977524943709  0.2375021630641029  1.0000
  Br  Br6       1.0  0.7624976695064158  0.23750218181001354  0.7624977307671353  1.0000
