data_image0
_chemical_formula_structural       Pd2CBr6
_chemical_formula_sum              "Pd2 C1 Br6"
_cell_length_a       6.918859667584232
_cell_length_b       6.918859868138416
_cell_length_c       6.918859703144793
_cell_angle_alpha    59.999995004453034
_cell_angle_beta     59.99999234016096
_cell_angle_gamma    59.99999476729423

_space_group_name_H-M_alt    "P 1"
_space_group_IT_number       1

loop_
  _space_group_symop_operation_xyz
  'x, y, z'

loop_
  _atom_site_type_symbol
  _atom_site_label
  _atom_site_symmetry_multiplicity
  _atom_site_fract_x
  _atom_site_fract_y
  _atom_site_fract_z
  _atom_site_occupancy
  Pd  Pd1       1.0  0.2500000459963796  0.24999989356312768  0.25000015378148405  1.0000
  Pd  Pd2       1.0  0.7499996850817603  0.7500000931353552  0.7500000075086055  1.0000
  C   C1        1.0  0.9999999820642272  0.9999999486655287  0.9999999797127803  1.0000
  Br  Br1       1.0  0.23720352901026034  0.2372034724791774  0.7627965227002574  1.0000
  Br  Br2       1.0  0.7627965700887614  0.7627965567029982  0.23720348247856773  1.0000
  Br  Br3       1.0  0.7627965258126289  0.23720351498231745  0.23720341172258574  1.0000
  Br  Br4       1.0  0.23720350433722695  0.7627965708448006  0.7627964825370381  1.0000
  Br  Br5       1.0  0.2372035533400625  0.7627964877653425  0.237203425568209  1.0000
  Br  Br6       1.0  0.7627966070722084  0.2372034475986588  0.7627965062529376  1.0000
