data_image0
_chemical_formula_structural       Pd2CaF6
_chemical_formula_sum              "Pd2 Ca1 F6"
_cell_length_a       5.617650925636221
_cell_length_b       5.617651289217731
_cell_length_c       5.617650917166164
_cell_angle_alpha    60.00000156571387
_cell_angle_beta     59.99999901075411
_cell_angle_gamma    60.00000145574331

_space_group_name_H-M_alt    "P 1"
_space_group_IT_number       1

loop_
  _space_group_symop_operation_xyz
  'x, y, z'

loop_
  _atom_site_type_symbol
  _atom_site_label
  _atom_site_symmetry_multiplicity
  _atom_site_fract_x
  _atom_site_fract_y
  _atom_site_fract_z
  _atom_site_occupancy
  Pd  Pd1       1.0  0.2499999622172634  0.2500003296539661  0.2499998476120186  1.0000
  Pd  Pd2       1.0  0.7499999901748186  0.749999691759309  0.750000330146915  1.0000
  Ca  Ca1       1.0  4.9623828890895635e-09  0.9999999912793103  1.9680188321953734e-08  1.0000
  F   F1        1.0  0.26441045077081016  0.2644106354668912  0.7355894469395542  1.0000
  F   F2        1.0  0.73558952560317  0.7355893140006947  0.26441056789040857  1.0000
  F   F3        1.0  0.7355894670192737  0.2644106872924351  0.26441036305307236  1.0000
  F   F4        1.0  0.2644105725332602  0.7355893624630819  0.73558956648344  1.0000
  F   F5        1.0  0.26441058951012375  0.7355894249968286  0.2644104522307029  1.0000
  F   F6        1.0  0.735589421536364  0.2644105746147231  0.7355894436465724  1.0000
