data_image0
_chemical_formula_structural       Pd2CoBr6
_chemical_formula_sum              "Pd2 Co1 Br6"
_cell_length_a       6.94049918978099
_cell_length_b       6.940499023084216
_cell_length_c       6.940498944818095
_cell_angle_alpha    60.000002831707036
_cell_angle_beta     59.999999562896605
_cell_angle_gamma    60.00000055993075

_space_group_name_H-M_alt    "P 1"
_space_group_IT_number       1

loop_
  _space_group_symop_operation_xyz
  'x, y, z'

loop_
  _atom_site_type_symbol
  _atom_site_label
  _atom_site_symmetry_multiplicity
  _atom_site_fract_x
  _atom_site_fract_y
  _atom_site_fract_z
  _atom_site_occupancy
  Pd  Pd1       1.0  0.25000013952828454  0.24999980932220783  0.25000006862497626  1.0000
  Pd  Pd2       1.0  0.7499999152200872  0.7500003491061644  0.7500000776734065  1.0000
  Co  Co1       1.0  0.9999999845565989  0.999999966471933  3.313064526706521e-08  1.0000
  Br  Br1       1.0  0.24547585808974154  0.2454757571224403  0.7545241587044487  1.0000
  Br  Br2       1.0  0.7545241051400275  0.7545242566058398  0.24547575270272207  1.0000
  Br  Br3       1.0  0.7545241939465116  0.2454757691988026  0.24547581048316158  1.0000
  Br  Br4       1.0  0.24547577538453091  0.7545241862965198  0.7545241702144082  1.0000
  Br  Br5       1.0  0.24547582859655176  0.7545242060789471  0.24547579035019282  1.0000
  Br  Br6       1.0  0.7545242089813955  0.2454756894187791  0.7545241357940696  1.0000
