data_image0
_chemical_formula_structural       Pd2CuCl6
_chemical_formula_sum              "Pd2 Cu1 Cl6"
_cell_length_a       6.5348623907708
_cell_length_b       6.534862392406715
_cell_length_c       6.534862169936164
_cell_angle_alpha    60.00000081664578
_cell_angle_beta     59.999999493053636
_cell_angle_gamma    59.999999432158724

_space_group_name_H-M_alt    "P 1"
_space_group_IT_number       1

loop_
  _space_group_symop_operation_xyz
  'x, y, z'

loop_
  _atom_site_type_symbol
  _atom_site_label
  _atom_site_symmetry_multiplicity
  _atom_site_fract_x
  _atom_site_fract_y
  _atom_site_fract_z
  _atom_site_occupancy
  Pd  Pd1       1.0  0.2499998721305996  0.24999999150770658  0.25000012344584577  1.0000
  Pd  Pd2       1.0  0.7500000577613863  0.7500000869733661  0.749999980188807  1.0000
  Cu  Cu1       1.0  9.747583562256232e-09  0.9999998594371856  1.1369410166604922e-09  1.0000
  Cl  Cl1       1.0  0.24845220662104336  0.2484521151302771  0.7515478247902841  1.0000
  Cl  Cl2       1.0  0.7515479717391275  0.7515478752647625  0.248452053279145  1.0000
  Cl  Cl3       1.0  0.7515478886775018  0.24845216183619181  0.24845210406201532  1.0000
  Cl  Cl4       1.0  0.2484520106398074  0.7515479447574441  0.751547956426324  1.0000
  Cl  Cl5       1.0  0.24845203015278267  0.7515479003278122  0.24845212317194681  1.0000
  Cl  Cl6       1.0  0.7515479597830805  0.248452056332154  0.7515478353720924  1.0000
