data_image0
_chemical_formula_structural       Pd2CoCl6
_chemical_formula_sum              "Pd2 Co1 Cl6"
_cell_length_a       6.635554664133667
_cell_length_b       6.635554520776907
_cell_length_c       6.63555452307641
_cell_angle_alpha    60.000000155908815
_cell_angle_beta     59.99999870605863
_cell_angle_gamma    60.000001012550534

_space_group_name_H-M_alt    "P 1"
_space_group_IT_number       1

loop_
  _space_group_symop_operation_xyz
  'x, y, z'

loop_
  _atom_site_type_symbol
  _atom_site_label
  _atom_site_symmetry_multiplicity
  _atom_site_fract_x
  _atom_site_fract_y
  _atom_site_fract_z
  _atom_site_occupancy
  Pd  Pd1       1.0  0.2499998826145006  0.2499999936098485  0.2500001878037356  1.0000
  Pd  Pd2       1.0  0.7500001858551792  0.7499999955953994  0.7499999464329629  1.0000
  Co  Co1       1.0  1.5471648522278015e-09  0.9999999796969589  0.9999999897865084  1.0000
  Cl  Cl1       1.0  0.2374266477893533  0.23742657220044638  0.7625734359903146  1.0000
  Cl  Cl2       1.0  0.7625734399096641  0.7625734428450364  0.23742672996478734  1.0000
  Cl  Cl3       1.0  0.7625733979404437  0.23742663222182864  0.2374263761272499  1.0000
  Cl  Cl4       1.0  0.23742647112718032  0.7625735323278565  0.7625733632393361  1.0000
  Cl  Cl5       1.0  0.23742649314136668  0.7625734092415482  0.23742657218416321  1.0000
  Cl  Cl6       1.0  0.7625735119644349  0.23742640461925177  0.762573404112617  1.0000
