data_image0
_chemical_formula_structural       Pd2FeCl6
_chemical_formula_sum              "Pd2 Fe1 Cl6"
_cell_length_a       6.676843166974251
_cell_length_b       6.67684322471773
_cell_length_c       6.676842947701781
_cell_angle_alpha    60.00000238812031
_cell_angle_beta     60.00000144737087
_cell_angle_gamma    60.0000067650247

_space_group_name_H-M_alt    "P 1"
_space_group_IT_number       1

loop_
  _space_group_symop_operation_xyz
  'x, y, z'

loop_
  _atom_site_type_symbol
  _atom_site_label
  _atom_site_symmetry_multiplicity
  _atom_site_fract_x
  _atom_site_fract_y
  _atom_site_fract_z
  _atom_site_occupancy
  Pd  Pd1       1.0  0.24999992719534328  0.24999963113922868  0.250000652700893  1.0000
  Pd  Pd2       1.0  0.7500001126703005  0.7500000325286564  0.7500002315185149  1.0000
  Fe  Fe1       1.0  0.9999999928905416  0.9999999798225103  0.9999999762006282  1.0000
  Cl  Cl1       1.0  0.23546029475709065  0.2354602284967887  0.7645395674322554  1.0000
  Cl  Cl2       1.0  0.7645396833141487  0.7645398644012998  0.2354601206147095  1.0000
  Cl  Cl3       1.0  0.7645397221844928  0.23546031011559124  0.23546011590011054  1.0000
  Cl  Cl4       1.0  0.2354601567498045  0.7645398726640327  0.7645395917516962  1.0000
  Cl  Cl5       1.0  0.23546015986416405  0.764539878299906  0.2354602279143449  1.0000
  Cl  Cl6       1.0  0.7645399636873987  0.23546020359228914  0.7645395112147977  1.0000
