data_image0
_chemical_formula_structural       Pd2FeI6
_chemical_formula_sum              "Pd2 Fe1 I6"
_cell_length_a       7.411658021890884
_cell_length_b       7.411657899167745
_cell_length_c       7.411658230943118
_cell_angle_alpha    59.9999991856091
_cell_angle_beta     60.000000009970115
_cell_angle_gamma    59.99999888167292

_space_group_name_H-M_alt    "P 1"
_space_group_IT_number       1

loop_
  _space_group_symop_operation_xyz
  'x, y, z'

loop_
  _atom_site_type_symbol
  _atom_site_label
  _atom_site_symmetry_multiplicity
  _atom_site_fract_x
  _atom_site_fract_y
  _atom_site_fract_z
  _atom_site_occupancy
  Pd  Pd1       1.0  0.25000010843049053  0.24999997203311586  0.2499999404831127  1.0000
  Pd  Pd2       1.0  0.7499998997033495  0.749999902879691  0.7500001406959285  1.0000
  Fe  Fe1       1.0  0.9999999916594218  1.652457227579905e-09  0.9999999520734826  1.0000
  I   I1        1.0  0.2291903634869558  0.2291904641915199  0.7708095861227183  1.0000
  I   I2        1.0  0.7708095720953392  0.7708096751144697  0.22919036810331292  1.0000
  I   I3        1.0  0.7708096449094298  0.2291903877076459  0.2291903768354515  1.0000
  I   I4        1.0  0.2291904133920281  0.7708095797427746  0.7708096329909747  1.0000
  I   I5        1.0  0.229190366223407  0.7708096403745796  0.22919036982354052  1.0000
  I   I6        1.0  0.7708096532858391  0.22919037334464798  0.7708096065816219  1.0000
