data_image0
_chemical_formula_structural       Pd2FeF6
_chemical_formula_sum              "Pd2 Fe1 F6"
_cell_length_a       5.756729510771044
_cell_length_b       6.217752451619686
_cell_length_c       6.074233371316939
_cell_angle_alpha    50.86814351810401
_cell_angle_beta     48.82339361493597
_cell_angle_gamma    68.73287211881535

_space_group_name_H-M_alt    "P 1"
_space_group_IT_number       1

loop_
  _space_group_symop_operation_xyz
  'x, y, z'

loop_
  _atom_site_type_symbol
  _atom_site_label
  _atom_site_symmetry_multiplicity
  _atom_site_fract_x
  _atom_site_fract_y
  _atom_site_fract_z
  _atom_site_occupancy
  Pd  Pd1       1.0  0.879775414728031  0.35895368205621403  0.35661474724846104  1.0000
  Pd  Pd2       1.0  0.1275651486808378  0.6422209515202579  0.6293815248596779  1.0000
  Fe  Fe1       1.0  0.9996843730077586  0.0009849129412955676  0.9992015956162558  1.0000
  F   F1        1.0  0.3624133168797255  0.2537226338971274  0.702998393094418  1.0000
  F   F2        1.0  0.6364585453882653  0.7444736931605656  0.302386235017166  1.0000
  F   F3        1.0  0.8662858364671047  0.9691153235851415  0.4178253691573522  1.0000
  F   F4        1.0  0.13218858229214078  0.02951925458709237  0.5849365651102001  1.0000
  F   F5        1.0  0.20665149989318382  0.6612524269487606  0.12636029348334107  1.0000
  F   F6        1.0  0.788911274278316  0.3398979892907494  0.8803779120393864  1.0000
