data_image0
_chemical_formula_structural       Pd2FeCl6
_chemical_formula_sum              "Pd2 Fe1 Cl6"
_cell_length_a       6.681122496487101
_cell_length_b       6.681121975173125
_cell_length_c       6.68112229280414
_cell_angle_alpha    59.9999985510806
_cell_angle_beta     59.99999876345545
_cell_angle_gamma    59.9999984745388

_space_group_name_H-M_alt    "P 1"
_space_group_IT_number       1

loop_
  _space_group_symop_operation_xyz
  'x, y, z'

loop_
  _atom_site_type_symbol
  _atom_site_label
  _atom_site_symmetry_multiplicity
  _atom_site_fract_x
  _atom_site_fract_y
  _atom_site_fract_z
  _atom_site_occupancy
  Pd  Pd1       1.0  0.2500003033606579  0.2500001128006915  0.24999966571607707  1.0000
  Pd  Pd2       1.0  0.7500002368017512  0.7499999057804317  0.7500000081060584  1.0000
  Fe  Fe1       1.0  0.9999999592366096  0.9999999926674294  2.5544735676551175e-08  1.0000
  Cl  Cl1       1.0  0.23528268898303345  0.23528277298354727  0.764717263328292  1.0000
  Cl  Cl2       1.0  0.7647171949123727  0.7647172804272798  0.23528275414110386  1.0000
  Cl  Cl3       1.0  0.7647171733535797  0.2352827213805925  0.23528274459545764  1.0000
  Cl  Cl4       1.0  0.2352826923543067  0.764717137717124  0.764717407562589  1.0000
  Cl  Cl5       1.0  0.23528266726554478  0.7647172644693123  0.23528275652759362  1.0000
  Cl  Cl6       1.0  0.7647170957534742  0.23528278344208656  0.7647173780128746  1.0000
