data_image0
_chemical_formula_structural       Pd2GeO6
_chemical_formula_sum              "Pd2 Ge1 O6"
_cell_length_a       5.272298225531734
_cell_length_b       5.272298760436156
_cell_length_c       5.272299011591558
_cell_angle_alpha    60.000000264651305
_cell_angle_beta     60.000004105308854
_cell_angle_gamma    60.000005601242414

_space_group_name_H-M_alt    "P 1"
_space_group_IT_number       1

loop_
  _space_group_symop_operation_xyz
  'x, y, z'

loop_
  _atom_site_type_symbol
  _atom_site_label
  _atom_site_symmetry_multiplicity
  _atom_site_fract_x
  _atom_site_fract_y
  _atom_site_fract_z
  _atom_site_occupancy
  Pd  Pd1       1.0  0.2499913979385743  0.24998749480842514  0.2500228902858417  1.0000
  Pd  Pd2       1.0  0.7500299586954906  0.7499993315484933  0.7499576246020243  1.0000
  Ge  Ge1       1.0  0.9999999814845261  0.9999999372795203  0.9999999856135071  1.0000
  O   O1        1.0  0.2513423470459628  0.25135607231257656  0.7486455264591726  1.0000
  O   O2        1.0  0.7486498103855076  0.7486506898636682  0.2513621700536084  1.0000
  O   O3        1.0  0.7486516820399427  0.25134151177984587  0.2513592460167704  1.0000
  O   O4        1.0  0.2513435563678711  0.7486588064480295  0.7486443659965784  1.0000
  O   O5        1.0  0.2513364567899189  0.7486530241865308  0.251362304454922  1.0000
  O   O6        1.0  0.7486550098598054  0.2513528273812458  0.7486459158338625  1.0000
