data_image0
_chemical_formula_structural       Pd2GeI6
_chemical_formula_sum              "Pd2 Ge1 I6"
_cell_length_a       7.596764718735988
_cell_length_b       7.596764718406886
_cell_length_c       7.596764787676538
_cell_angle_alpha    59.99999978455118
_cell_angle_beta     59.999999679295534
_cell_angle_gamma    59.99999922213899

_space_group_name_H-M_alt    "P 1"
_space_group_IT_number       1

loop_
  _space_group_symop_operation_xyz
  'x, y, z'

loop_
  _atom_site_type_symbol
  _atom_site_label
  _atom_site_symmetry_multiplicity
  _atom_site_fract_x
  _atom_site_fract_y
  _atom_site_fract_z
  _atom_site_occupancy
  Pd  Pd1       1.0  0.24999992692595976  0.2500000087941952  0.2500001028416503  1.0000
  Pd  Pd2       1.0  0.7500000400059837  0.7499999828533802  0.7500000901021161  1.0000
  Ge  Ge1       1.0  0.9999999975896207  0.9999999935512291  3.99710203387543e-08  1.0000
  I   I1        1.0  0.26204966962617626  0.26204974559243255  0.7379502414889699  1.0000
  I   I2        1.0  0.7379503269995811  0.7379502299332151  0.262049690613337  1.0000
  I   I3        1.0  0.7379503182313728  0.2620496888160513  0.26204964685099896  1.0000
  I   I4        1.0  0.2620496657418119  0.7379503657070399  0.7379502849876184  1.0000
  I   I5        1.0  0.2620497128821424  0.7379503249003975  0.2620496305508095  1.0000
  I   I6        1.0  0.7379503353310678  0.26204965546182807  0.7379502891356803  1.0000
