data_image0
_chemical_formula_structural       Pd2GeCl6
_chemical_formula_sum              "Pd2 Ge1 Cl6"
_cell_length_a       6.722960205978232
_cell_length_b       6.722960746255292
_cell_length_c       6.722960487439447
_cell_angle_alpha    59.999997762720646
_cell_angle_beta     59.99999750203879
_cell_angle_gamma    59.999995207082456

_space_group_name_H-M_alt    "P 1"
_space_group_IT_number       1

loop_
  _space_group_symop_operation_xyz
  'x, y, z'

loop_
  _atom_site_type_symbol
  _atom_site_label
  _atom_site_symmetry_multiplicity
  _atom_site_fract_x
  _atom_site_fract_y
  _atom_site_fract_z
  _atom_site_occupancy
  Pd  Pd1       1.0  0.25000007131242896  0.2499998152179268  0.2500002318879762  1.0000
  Pd  Pd2       1.0  0.7499998621821481  0.7499997280226571  0.750000121994116  1.0000
  Ge  Ge1       1.0  2.3194298781703686e-08  7.469111118698793e-08  0.9999999317205736  1.0000
  Cl  Cl1       1.0  0.2385034860071664  0.23850359897027198  0.7614963439495309  1.0000
  Cl  Cl2       1.0  0.761496357835273  0.7614965326905448  0.23850357759338542  1.0000
  Cl  Cl3       1.0  0.7614964506468588  0.23850358472499536  0.2385035543144587  1.0000
  Cl  Cl4       1.0  0.23850366498488904  0.7614965250749892  0.7614963791086932  1.0000
  Cl  Cl5       1.0  0.2385035391100417  0.7614964617117738  0.2385034922028345  1.0000
  Cl  Cl6       1.0  0.7614965798526151  0.23850365355341507  0.7614964040985815  1.0000
