data_image0
_chemical_formula_structural       Pd2GeBr6
_chemical_formula_sum              "Pd2 Ge1 Br6"
_cell_length_a       7.048475299302228
_cell_length_b       7.048475083029867
_cell_length_c       7.0484746163692815
_cell_angle_alpha    59.999998722148604
_cell_angle_beta     59.99999702048482
_cell_angle_gamma    59.99999786516059

_space_group_name_H-M_alt    "P 1"
_space_group_IT_number       1

loop_
  _space_group_symop_operation_xyz
  'x, y, z'

loop_
  _atom_site_type_symbol
  _atom_site_label
  _atom_site_symmetry_multiplicity
  _atom_site_fract_x
  _atom_site_fract_y
  _atom_site_fract_z
  _atom_site_occupancy
  Pd  Pd1       1.0  0.24999974562069774  0.24999995103830536  0.2500000130972022  1.0000
  Pd  Pd2       1.0  0.7499999464556992  0.7500002701395452  0.7499995114511121  1.0000
  Ge  Ge1       1.0  1.247551840809742e-07  0.9999999009566477  5.950016186231136e-08  1.0000
  Br  Br1       1.0  0.24270041816451868  0.24270029700369727  0.7572997060946707  1.0000
  Br  Br2       1.0  0.7572996467549747  0.7572995870792273  0.2427005298153459  1.0000
  Br  Br3       1.0  0.7572998029666497  0.24270016791665178  0.24270051510581284  1.0000
  Br  Br4       1.0  0.24270038789760323  0.7572997265918869  0.7572997235563451  1.0000
  Br  Br5       1.0  0.2427002867709118  0.7572997035195991  0.2427003982115861  1.0000
  Br  Br6       1.0  0.7572996486092745  0.24270038733804436  0.7572995451250687  1.0000
