data_image0
_chemical_formula_structural       Pd2GeI6
_chemical_formula_sum              "Pd2 Ge1 I6"
_cell_length_a       7.598893296176042
_cell_length_b       7.598893122568471
_cell_length_c       7.598893473960101
_cell_angle_alpha    59.9999987803675
_cell_angle_beta     59.9999978655425
_cell_angle_gamma    59.9999998495654

_space_group_name_H-M_alt    "P 1"
_space_group_IT_number       1

loop_
  _space_group_symop_operation_xyz
  'x, y, z'

loop_
  _atom_site_type_symbol
  _atom_site_label
  _atom_site_symmetry_multiplicity
  _atom_site_fract_x
  _atom_site_fract_y
  _atom_site_fract_z
  _atom_site_occupancy
  Pd  Pd1       1.0  0.24999999561265432  0.2500000208220911  0.24999999151130384  1.0000
  Pd  Pd2       1.0  0.7499999630621869  0.7500000608545305  0.7499998279939613  1.0000
  Ge  Ge1       1.0  4.336157284785599e-08  0.9999999838825891  1.0065577849603518e-08  1.0000
  I   I1        1.0  0.26228229180945273  0.262282281110843  0.7377177004086296  1.0000
  I   I2        1.0  0.7377176730674482  0.7377177409313574  0.2622823418939961  1.0000
  I   I3        1.0  0.7377176938264755  0.26228227581258734  0.26228233916355087  1.0000
  I   I4        1.0  0.262282302194938  0.7377176801482263  0.7377177508750762  1.0000
  I   I5        1.0  0.2622823078593648  0.7377176599154691  0.2622823500461666  1.0000
  I   I6        1.0  0.7377177307098446  0.2622822960453447  0.7377176897669783  1.0000
