data_image0
_chemical_formula_structural       Pd2GeBr6
_chemical_formula_sum              "Pd2 Ge1 Br6"
_cell_length_a       7.0449125986902565
_cell_length_b       7.044912563742225
_cell_length_c       7.044912509809533
_cell_angle_alpha    59.999999054971084
_cell_angle_beta     60.000000682745906
_cell_angle_gamma    59.999999793820756

_space_group_name_H-M_alt    "P 1"
_space_group_IT_number       1

loop_
  _space_group_symop_operation_xyz
  'x, y, z'

loop_
  _atom_site_type_symbol
  _atom_site_label
  _atom_site_symmetry_multiplicity
  _atom_site_fract_x
  _atom_site_fract_y
  _atom_site_fract_z
  _atom_site_occupancy
  Pd  Pd1       1.0  0.249999980594915  0.2500000509068166  0.249999805776836  1.0000
  Pd  Pd2       1.0  0.7499999664729393  0.7499999753953497  0.7499999152297838  1.0000
  Ge  Ge1       1.0  3.0963200310085328e-09  0.9999999808767049  5.059740901516263e-08  1.0000
  Br  Br1       1.0  0.24281989452059302  0.24281991410274983  0.757180152201469  1.0000
  Br  Br2       1.0  0.7571801390536402  0.757180073952823  0.24281986405466835  1.0000
  Br  Br3       1.0  0.7571800840653338  0.24281982882105474  0.2428199718271882  1.0000
  Br  Br4       1.0  0.24281989884877034  0.7571800653565259  0.7571801805738926  1.0000
  Br  Br5       1.0  0.2428199336788951  0.7571801632604235  0.24281987127208676  1.0000
  Br  Br6       1.0  0.75718011139992  0.24281993779643318  0.7571801906103843  1.0000
