data_image0
_chemical_formula_structural       Pd2GeSe6
_chemical_formula_sum              "Pd2 Ge1 Se6"
_cell_length_a       6.3964258677724475
_cell_length_b       6.396425862567157
_cell_length_c       6.396425968665802
_cell_angle_alpha    59.99999997989195
_cell_angle_beta     59.99999857052747
_cell_angle_gamma    60.000000377234095

_space_group_name_H-M_alt    "P 1"
_space_group_IT_number       1

loop_
  _space_group_symop_operation_xyz
  'x, y, z'

loop_
  _atom_site_type_symbol
  _atom_site_label
  _atom_site_symmetry_multiplicity
  _atom_site_fract_x
  _atom_site_fract_y
  _atom_site_fract_z
  _atom_site_occupancy
  Pd  Pd1       1.0  0.24999991688840129  0.25000009329601147  0.2500000279083436  1.0000
  Pd  Pd2       1.0  0.7500000571942723  0.7499999831043985  0.750000164837829  1.0000
  Ge  Ge1       1.0  2.8683420510003227e-08  0.999999978937936  4.9344005285928485e-08  1.0000
  Se  Se1       1.0  0.28775114537375257  0.2877512203164581  0.712248825919295  1.0000
  Se  Se2       1.0  0.7122487876079201  0.7122488656576145  0.2877510714793094  1.0000
  Se  Se3       1.0  0.7122488252533349  0.2877512041589844  0.2877511436412927  1.0000
  Se  Se4       1.0  0.28775115284346453  0.7122487248069703  0.7122488487881327  1.0000
  Se  Se5       1.0  0.28775120592447606  0.7122487667608727  0.28775119068293603  1.0000
  Se  Se6       1.0  0.7122488647676787  0.28775116603454853  0.7122487019427671  1.0000
