data_image0
_chemical_formula_structural       Pd2GeS6
_chemical_formula_sum              "Pd2 Ge1 S6"
_cell_length_a       6.164149226530523
_cell_length_b       6.164149179646772
_cell_length_c       6.16414919942378
_cell_angle_alpha    60.00000062024615
_cell_angle_beta     59.999999745574414
_cell_angle_gamma    59.999999192825264

_space_group_name_H-M_alt    "P 1"
_space_group_IT_number       1

loop_
  _space_group_symop_operation_xyz
  'x, y, z'

loop_
  _atom_site_type_symbol
  _atom_site_label
  _atom_site_symmetry_multiplicity
  _atom_site_fract_x
  _atom_site_fract_y
  _atom_site_fract_z
  _atom_site_occupancy
  Pd  Pd1       1.0  0.2500002010238457  0.25000008445604743  0.24999987090191803  1.0000
  Pd  Pd2       1.0  0.7500000787559188  0.7499999155978824  0.7499995327292647  1.0000
  Ge  Ge1       1.0  0.9999999874553949  0.9999999701967415  0.9999999806168343  1.0000
  S   S1        1.0  0.26349563494529826  0.26349559265880307  0.7365043901861494  1.0000
  S   S2        1.0  0.7365045567008236  0.7365041828772562  0.26349595333391235  1.0000
  S   S3        1.0  0.7365041691793744  0.2634956190418005  0.2634955831948277  1.0000
  S   S4        1.0  0.2634956834599167  0.7365044485661896  0.7365043587543051  1.0000
  S   S5        1.0  0.26349544970078836  0.7365043744155473  0.26349576881432235  1.0000
  S   S6        1.0  0.7365042330763646  0.26349579253664235  0.7365045669185225  1.0000
