data_image0
_chemical_formula_structural       Pd2GeCl6
_chemical_formula_sum              "Pd2 Ge1 Cl6"
_cell_length_a       6.7194258915604355
_cell_length_b       6.719424827537301
_cell_length_c       6.7194258507606754
_cell_angle_alpha    59.999994342876626
_cell_angle_beta     59.999998258793326
_cell_angle_gamma    59.99999737005023

_space_group_name_H-M_alt    "P 1"
_space_group_IT_number       1

loop_
  _space_group_symop_operation_xyz
  'x, y, z'

loop_
  _atom_site_type_symbol
  _atom_site_label
  _atom_site_symmetry_multiplicity
  _atom_site_fract_x
  _atom_site_fract_y
  _atom_site_fract_z
  _atom_site_occupancy
  Pd  Pd1       1.0  0.24999997935582183  0.2500001851499092  0.24999996121745027  1.0000
  Pd  Pd2       1.0  0.7500001691652038  0.7500000013510196  0.749999866566148  1.0000
  Ge  Ge1       1.0  0.999999961482267  7.290771232460861e-09  4.6866151594146135e-08  1.0000
  Cl  Cl1       1.0  0.2386093260318287  0.23860947552792808  0.7613905959753668  1.0000
  Cl  Cl2       1.0  0.7613906125463876  0.7613905159448268  0.23860944471128395  1.0000
  Cl  Cl3       1.0  0.7613904738556873  0.23860945741101988  0.23860941076719644  1.0000
  Cl  Cl4       1.0  0.23860949753100244  0.7613904356363064  0.7613906433810407  1.0000
  Cl  Cl5       1.0  0.2386093571641138  0.7613904956218362  0.23860951773709424  1.0000
  Cl  Cl6       1.0  0.7613906380724093  0.2386094083616495  0.7613905190181461  1.0000
