data_image0
_chemical_formula_structural       Pd2HgBr6
_chemical_formula_sum              "Pd2 Hg1 Br6"
_cell_length_a       7.1948706616515965
_cell_length_b       7.194870734432152
_cell_length_c       7.194870762402609
_cell_angle_alpha    59.99999926860001
_cell_angle_beta     59.99999978151037
_cell_angle_gamma    59.99999979971737

_space_group_name_H-M_alt    "P 1"
_space_group_IT_number       1

loop_
  _space_group_symop_operation_xyz
  'x, y, z'

loop_
  _atom_site_type_symbol
  _atom_site_label
  _atom_site_symmetry_multiplicity
  _atom_site_fract_x
  _atom_site_fract_y
  _atom_site_fract_z
  _atom_site_occupancy
  Pd  Pd1       1.0  0.24999997322222609  0.24999997255814752  0.24999998595982875  1.0000
  Pd  Pd2       1.0  0.7499999917866942  0.7500000913036595  0.7499999295166432  1.0000
  Hg  Hg1       1.0  0.9999999706251407  2.5533708506532785e-08  0.9999999977509382  1.0000
  Br  Br1       1.0  0.2645261454487961  0.26452608522871235  0.7354738863912353  1.0000
  Br  Br2       1.0  0.7354738641912618  0.7354738543690461  0.26452612866649095  1.0000
  Br  Br3       1.0  0.7354738676391451  0.2645261093690991  0.2645261861508713  1.0000
  Br  Br4       1.0  0.2645261310086045  0.7354739017230427  0.7354738681497686  1.0000
  Br  Br5       1.0  0.2645261684929964  0.7354738628206055  0.2645261379132399  1.0000
  Br  Br6       1.0  0.7354738863594524  0.2645260903951307  0.7354738963750681  1.0000
