data_image0
_chemical_formula_structural       Pd2HgI6
_chemical_formula_sum              "Pd2 Hg1 I6"
_cell_length_a       7.687498961267039
_cell_length_b       7.687498914592251
_cell_length_c       7.687498880047947
_cell_angle_alpha    59.99999983407791
_cell_angle_beta     60.000000891427554
_cell_angle_gamma    60.00000007953838

_space_group_name_H-M_alt    "P 1"
_space_group_IT_number       1

loop_
  _space_group_symop_operation_xyz
  'x, y, z'

loop_
  _atom_site_type_symbol
  _atom_site_label
  _atom_site_symmetry_multiplicity
  _atom_site_fract_x
  _atom_site_fract_y
  _atom_site_fract_z
  _atom_site_occupancy
  Pd  Pd1       1.0  0.2500000216567929  0.24999997685600828  0.2499999894627464  1.0000
  Pd  Pd2       1.0  0.7500000095298716  0.7500000022604179  0.7499999511566036  1.0000
  Hg  Hg1       1.0  1.6522546385046632e-08  6.813018471320415e-18  0.9999999943403532  1.0000
  I   I1        1.0  0.27012880322317007  0.27012877644139116  0.7298712132272811  1.0000
  I   I2        1.0  0.7298712133829383  0.7298712058613631  0.2701288176420408  1.0000
  I   I3        1.0  0.7298712182763816  0.27012874646453555  0.2701288229044582  1.0000
  I   I4        1.0  0.2701287787119666  0.7298712406177116  0.7298712257905027  1.0000
  I   I5        1.0  0.2701287194918562  0.7298712575371218  0.27012877215847486  1.0000
  I   I6        1.0  0.7298712063378363  0.27012878530587575  0.7298712217964048  1.0000
