data_image0
_chemical_formula_structural       Pd2InI6
_chemical_formula_sum              "Pd2 In1 I6"
_cell_length_a       7.730694016117135
_cell_length_b       7.730694033434119
_cell_length_c       7.73069394657694
_cell_angle_alpha    60.000000601936776
_cell_angle_beta     60.00000041678869
_cell_angle_gamma    60.0000001044345

_space_group_name_H-M_alt    "P 1"
_space_group_IT_number       1

loop_
  _space_group_symop_operation_xyz
  'x, y, z'

loop_
  _atom_site_type_symbol
  _atom_site_label
  _atom_site_symmetry_multiplicity
  _atom_site_fract_x
  _atom_site_fract_y
  _atom_site_fract_z
  _atom_site_occupancy
  Pd  Pd1       1.0  0.2500000064819784  0.2500000271220943  0.2499999562684764  1.0000
  Pd  Pd2       1.0  0.7500000062464152  0.749999964130858  0.7500000051678729  1.0000
  In  In1       1.0  2.7323308247523232e-08  3.1685247753407273e-09  0.9999999252510166  1.0000
  I   I1        1.0  0.2637614109164418  0.26376141700424255  0.7362385845920395  1.0000
  I   I2        1.0  0.7362385551617077  0.7362385663273976  0.2637614403493461  1.0000
  I   I3        1.0  0.7362385557596423  0.2637614639829619  0.2637614233815797  1.0000
  I   I4        1.0  0.2637613921823213  0.7362385827191782  0.7362386306844463  1.0000
  I   I5        1.0  0.26376143246481115  0.7362385721930911  0.26376144296236104  1.0000
  I   I6        1.0  0.7362386090054878  0.2637614000487115  0.7362385951019416  1.0000
