data_image0
_chemical_formula_structural       Pd2InCl6
_chemical_formula_sum              "Pd2 In1 Cl6"
_cell_length_a       6.769268774052496
_cell_length_b       6.769268931660454
_cell_length_c       6.769269084159923
_cell_angle_alpha    59.9999999742752
_cell_angle_beta     60.000000063992665
_cell_angle_gamma    60.00000027147149

_space_group_name_H-M_alt    "P 1"
_space_group_IT_number       1

loop_
  _space_group_symop_operation_xyz
  'x, y, z'

loop_
  _atom_site_type_symbol
  _atom_site_label
  _atom_site_symmetry_multiplicity
  _atom_site_fract_x
  _atom_site_fract_y
  _atom_site_fract_z
  _atom_site_occupancy
  Pd  Pd1       1.0  0.24999998347706176  0.24999988544709686  0.25000004002887366  1.0000
  Pd  Pd2       1.0  0.7499999329887275  0.7499999747731616  0.7500000744776858  1.0000
  In  In1       1.0  0.999999964660106  3.4376168074125054e-08  7.87768741014316e-08  1.0000
  Cl  Cl1       1.0  0.26067642213475173  0.2606764548338463  0.739323547702997  1.0000
  Cl  Cl2       1.0  0.7393235381613705  0.739323611643419  0.26067636198761845  1.0000
  Cl  Cl3       1.0  0.7393235952596618  0.2606765188393275  0.26067642741500785  1.0000
  Cl  Cl4       1.0  0.26067648826781525  0.7393235259266737  0.7393234492427361  1.0000
  Cl  Cl5       1.0  0.2606765678234511  0.739323474219654  0.26067648249130504  1.0000
  Cl  Cl6       1.0  0.7393235193403249  0.26067652893309157  0.7393235342905952  1.0000
