data_image0
_chemical_formula_structural       Pd2IrBr6
_chemical_formula_sum              "Pd2 Ir1 Br6"
_cell_length_a       7.08513096511295
_cell_length_b       7.085130651114684
_cell_length_c       7.085130557601079
_cell_angle_alpha    59.99999937829901
_cell_angle_beta     59.99999878516532
_cell_angle_gamma    60.00000149917792

_space_group_name_H-M_alt    "P 1"
_space_group_IT_number       1

loop_
  _space_group_symop_operation_xyz
  'x, y, z'

loop_
  _atom_site_type_symbol
  _atom_site_label
  _atom_site_symmetry_multiplicity
  _atom_site_fract_x
  _atom_site_fract_y
  _atom_site_fract_z
  _atom_site_occupancy
  Pd  Pd1       1.0  0.2499999693632614  0.24999992866994922  0.24999997692698434  1.0000
  Pd  Pd2       1.0  0.7500002027724773  0.7500001438327412  0.7499995198437542  1.0000
  Ir  Ir1       1.0  0.9999999765253688  0.9999999775280307  6.390409228037777e-08  1.0000
  Br  Br1       1.0  0.24673408772864838  0.24673410492356698  0.7532659399795548  1.0000
  Br  Br2       1.0  0.7532658975957363  0.7532659070776637  0.2467342040794425  1.0000
  Br  Br3       1.0  0.753265938960403  0.2467340394989476  0.24673420956380257  1.0000
  Br  Br4       1.0  0.24673405160070566  0.7532658687855052  0.7532659413930245  1.0000
  Br  Br5       1.0  0.24673403782697728  0.753265913839414  0.24673418708937292  1.0000
  Br  Br6       1.0  0.7532658359992165  0.2467341050762651  0.7532659725649267  1.0000
