data_image0
_chemical_formula_structural       Pd2InBr6
_chemical_formula_sum              "Pd2 In1 Br6"
_cell_length_a       7.207118449474719
_cell_length_b       7.207118577399185
_cell_length_c       7.207118572719968
_cell_angle_alpha    60.000000319717735
_cell_angle_beta     60.000000161260694
_cell_angle_gamma    60.00000027689025

_space_group_name_H-M_alt    "P 1"
_space_group_IT_number       1

loop_
  _space_group_symop_operation_xyz
  'x, y, z'

loop_
  _atom_site_type_symbol
  _atom_site_label
  _atom_site_symmetry_multiplicity
  _atom_site_fract_x
  _atom_site_fract_y
  _atom_site_fract_z
  _atom_site_occupancy
  Pd  Pd1       1.0  0.2500000281148807  0.24999995787464602  0.25000000389717925  1.0000
  Pd  Pd2       1.0  0.7500000264722647  0.7499998838200646  0.7500000577299359  1.0000
  In  In1       1.0  1.335043600905721e-08  5.6078695115355446e-08  0.9999999638979176  1.0000
  Br  Br1       1.0  0.26097789026850676  0.2609779575153986  0.7390220819152055  1.0000
  Br  Br2       1.0  0.7390219730276478  0.739022001434766  0.26097797926671656  1.0000
  Br  Br3       1.0  0.7390220505758208  0.260977963058877  0.2609778913763099  1.0000
  Br  Br4       1.0  0.260977969099523  0.7390221131467407  0.7390220163380875  1.0000
  Br  Br5       1.0  0.2609779732570579  0.739022080555928  0.26097792523903757  1.0000
  Br  Br6       1.0  0.7390220770538296  0.2609779854535633  0.739022077706948  1.0000
