data_image0
_chemical_formula_structural       Pd2IrF6
_chemical_formula_sum              "Pd2 Ir1 F6"
_cell_length_a       5.67462844003015
_cell_length_b       5.674627729303803
_cell_length_c       5.674627898146875
_cell_angle_alpha    60.000002634137154
_cell_angle_beta     59.99999919651596
_cell_angle_gamma    60.00000172959194

_space_group_name_H-M_alt    "P 1"
_space_group_IT_number       1

loop_
  _space_group_symop_operation_xyz
  'x, y, z'

loop_
  _atom_site_type_symbol
  _atom_site_label
  _atom_site_symmetry_multiplicity
  _atom_site_fract_x
  _atom_site_fract_y
  _atom_site_fract_z
  _atom_site_occupancy
  Pd  Pd1       1.0  0.25000011844903974  0.250000071277564  0.25000021656485105  1.0000
  Pd  Pd2       1.0  0.7499998029583155  0.7500001922497807  0.7499996449657748  1.0000
  Ir  Ir1       1.0  5.210553654653121e-08  0.9999999352515351  3.451714220585919e-08  1.0000
  F   F1        1.0  0.24467342099063835  0.24467323185793516  0.7553267261331686  1.0000
  F   F2        1.0  0.7553266093993695  0.7553267230350512  0.24467328809020084  1.0000
  F   F3        1.0  0.7553265293024999  0.24467321113421076  0.24467329346098837  1.0000
  F   F4        1.0  0.24467342008507492  0.7553266876434349  0.7553267998946495  1.0000
  F   F5        1.0  0.24467310634487344  0.7553264691222233  0.24467345454427725  1.0000
  F   F6        1.0  0.7553269373052346  0.2446733238995886  0.7553265493975805  1.0000
