data_image0
_chemical_formula_structural       Pd2IrI6
_chemical_formula_sum              "Pd2 Ir1 I6"
_cell_length_a       7.448886064226569
_cell_length_b       7.448886096766494
_cell_length_c       7.448886136948463
_cell_angle_alpha    60.000000205258
_cell_angle_beta     59.99999944277058
_cell_angle_gamma    59.99999969337492

_space_group_name_H-M_alt    "P 1"
_space_group_IT_number       1

loop_
  _space_group_symop_operation_xyz
  'x, y, z'

loop_
  _atom_site_type_symbol
  _atom_site_label
  _atom_site_symmetry_multiplicity
  _atom_site_fract_x
  _atom_site_fract_y
  _atom_site_fract_z
  _atom_site_occupancy
  Pd  Pd1       1.0  0.25000001892416224  0.2499999948348926  0.25000001777230674  1.0000
  Pd  Pd2       1.0  0.7500000018745983  0.7499999910814727  0.7500000345180241  1.0000
  Ir  Ir1       1.0  0.9999999884288431  0.9999999835580131  0.9999999831294722  1.0000
  I   I1        1.0  0.25228250538694835  0.25228250693396176  0.7477174985615495  1.0000
  I   I2        1.0  0.7477174954315953  0.7477174970685888  0.2522824996340106  1.0000
  I   I3        1.0  0.7477174762268411  0.25228253469420625  0.25228249189063073  1.0000
  I   I4        1.0  0.25228251209634606  0.7477174742409404  0.7477175074013446  1.0000
  I   I5        1.0  0.25228251184418377  0.7477174831567179  0.25228251290443837  1.0000
  I   I6        1.0  0.7477174919806576  0.25228252577842836  0.747717458499471  1.0000
