data_image0
_chemical_formula_structural       Pd2MnSe6
_chemical_formula_sum              "Pd2 Mn1 Se6"
_cell_length_a       6.2135145810113475
_cell_length_b       6.213514716032391
_cell_length_c       6.2135146798243
_cell_angle_alpha    59.99999997856102
_cell_angle_beta     60.00000018073621
_cell_angle_gamma    60.000000289670886

_space_group_name_H-M_alt    "P 1"
_space_group_IT_number       1

loop_
  _space_group_symop_operation_xyz
  'x, y, z'

loop_
  _atom_site_type_symbol
  _atom_site_label
  _atom_site_symmetry_multiplicity
  _atom_site_fract_x
  _atom_site_fract_y
  _atom_site_fract_z
  _atom_site_occupancy
  Pd  Pd1       1.0  0.24999999929597364  0.25000018982988753  0.24999991925706547  1.0000
  Pd  Pd2       1.0  0.7500000990776048  0.7499998756630384  0.7500000444332976  1.0000
  Mn  Mn1       1.0  0.9999999783566003  0.9999999980289015  4.882333600321496e-08  1.0000
  Se  Se1       1.0  0.2687066539189804  0.26870671297141757  0.7312933304585767  1.0000
  Se  Se2       1.0  0.7312933753020371  0.7312932756486725  0.2687066370404958  1.0000
  Se  Se3       1.0  0.7312933049894295  0.2687067353653994  0.26870660685900805  1.0000
  Se  Se4       1.0  0.2687067080505668  0.7312932571968878  0.7312933152588337  1.0000
  Se  Se5       1.0  0.26870662481021623  0.7312932851799424  0.2687066961812281  1.0000
  Se  Se6       1.0  0.7312932568491982  0.26870667781586904  0.7312933965362665  1.0000
