data_image0
_chemical_formula_structural       Pd2MnF6
_chemical_formula_sum              "Pd2 Mn1 F6"
_cell_length_a       4.433357915938298
_cell_length_b       4.43333407347201
_cell_length_c       4.433333699498059
_cell_angle_alpha    59.999902848312026
_cell_angle_beta     60.00006794950661
_cell_angle_gamma    60.00025657264354

_space_group_name_H-M_alt    "P 1"
_space_group_IT_number       1

loop_
  _space_group_symop_operation_xyz
  'x, y, z'

loop_
  _atom_site_type_symbol
  _atom_site_label
  _atom_site_symmetry_multiplicity
  _atom_site_fract_x
  _atom_site_fract_y
  _atom_site_fract_z
  _atom_site_occupancy
  Pd  Pd1       1.0  0.2500014804023432  0.2500035147172323  0.24999835027447953  1.0000
  Pd  Pd2       1.0  0.7499999379350614  0.7500019801243326  0.750001904784136  1.0000
  Mn  Mn1       1.0  1.8227445747925315e-06  3.712918535990814e-06  0.9999987231414076  1.0000
  F   F1        1.0  0.2636969882626434  0.2636935603417597  0.7363025538352536  1.0000
  F   F2        1.0  0.7363051657407332  0.7363040390441838  0.2636960841314714  1.0000
  F   F3        1.0  0.7363039959217035  0.2636922392831762  0.26369788300282265  1.0000
  F   F4        1.0  0.26369209123368076  0.7363064954955778  0.7363067800940071  1.0000
  F   F5        1.0  0.26369482850434434  0.73630187907051  0.26369402938358893  1.0000
  F   F6        1.0  0.7363053733556486  0.2636926925155166  0.7363076263782415  1.0000
