data_image0
_chemical_formula_structural       Pd2MnBr6
_chemical_formula_sum              "Pd2 Mn1 Br6"
_cell_length_a       7.107708634624997
_cell_length_b       7.107707957798274
_cell_length_c       7.107708069008705
_cell_angle_alpha    59.99999907917428
_cell_angle_beta     60.000001530870186
_cell_angle_gamma    60.00000198175494

_space_group_name_H-M_alt    "P 1"
_space_group_IT_number       1

loop_
  _space_group_symop_operation_xyz
  'x, y, z'

loop_
  _atom_site_type_symbol
  _atom_site_label
  _atom_site_symmetry_multiplicity
  _atom_site_fract_x
  _atom_site_fract_y
  _atom_site_fract_z
  _atom_site_occupancy
  Pd  Pd1       1.0  0.24999997935145002  0.24999992828918954  0.25000004833053496  1.0000
  Pd  Pd2       1.0  0.7499999015533406  0.7500001088145266  0.749999912632463  1.0000
  Mn  Mn1       1.0  1.557282743736167e-08  6.892489140554952e-09  4.2230426469141326e-08  1.0000
  Br  Br1       1.0  0.23075681394242809  0.2307565990823417  0.7692432755266584  1.0000
  Br  Br2       1.0  0.7692433228259054  0.7692433673733781  0.2307566547331891  1.0000
  Br  Br3       1.0  0.7692431821118755  0.2307567755152176  0.23075679806249477  1.0000
  Br  Br4       1.0  0.23075675153387068  0.769243278819722  0.7692432545375093  1.0000
  Br  Br5       1.0  0.2307567846303  0.7692431877143989  0.2307567668139555  1.0000
  Br  Br6       1.0  0.7692432521042184  0.23075674255575204  0.769243251252511  1.0000
