data_image0
_chemical_formula_structural       Pd2MnF6
_chemical_formula_sum              "Pd2 Mn1 F6"
_cell_length_a       5.281092746221192
_cell_length_b       5.281092793190736
_cell_length_c       5.281092733033375
_cell_angle_alpha    59.99999967362814
_cell_angle_beta     59.9999997457684
_cell_angle_gamma    60.000000685284675

_space_group_name_H-M_alt    "P 1"
_space_group_IT_number       1

loop_
  _space_group_symop_operation_xyz
  'x, y, z'

loop_
  _atom_site_type_symbol
  _atom_site_label
  _atom_site_symmetry_multiplicity
  _atom_site_fract_x
  _atom_site_fract_y
  _atom_site_fract_z
  _atom_site_occupancy
  Pd  Pd1       1.0  0.24999999790464117  0.25000008853469696  0.24999994411363366  1.0000
  Pd  Pd2       1.0  0.7499999697120527  0.7499999571621178  0.7500000572627975  1.0000
  Mn  Mn1       1.0  1.287637321589026e-08  0.9999999744897619  6.362900519108915e-10  1.0000
  F   F1        1.0  0.2463318626682663  0.24633174766974034  0.7536681942139989  1.0000
  F   F2        1.0  0.7536681733281136  0.7536681519229828  0.24633182898270808  1.0000
  F   F3        1.0  0.753668094830332  0.24633187192117262  0.246331867284729  1.0000
  F   F4        1.0  0.24633189515893844  0.7536681853712047  0.7536681644463202  1.0000
  F   F5        1.0  0.24633185663397617  0.7536682142799185  0.24633176077955315  1.0000
  F   F6        1.0  0.7536681352992659  0.24633181750222138  0.7536681804830634  1.0000
