data_image0
_chemical_formula_structural       Pd2MnO6
_chemical_formula_sum              "Pd2 Mn1 O6"
_cell_length_a       5.232702944311661
_cell_length_b       5.232703091465722
_cell_length_c       5.232703395988626
_cell_angle_alpha    60.00000080166824
_cell_angle_beta     59.999999216164994
_cell_angle_gamma    60.00000077834451

_space_group_name_H-M_alt    "P 1"
_space_group_IT_number       1

loop_
  _space_group_symop_operation_xyz
  'x, y, z'

loop_
  _atom_site_type_symbol
  _atom_site_label
  _atom_site_symmetry_multiplicity
  _atom_site_fract_x
  _atom_site_fract_y
  _atom_site_fract_z
  _atom_site_occupancy
  Pd  Pd1       1.0  0.2500009078871354  0.2499998336670645  0.2499991360637708  1.0000
  Pd  Pd2       1.0  0.750000908740252  0.7500001329520476  0.749998701034755  1.0000
  Mn  Mn1       1.0  0.999999908098788  0.9999999976594428  1.140079151826184e-07  1.0000
  O   O1        1.0  0.24531782052573517  0.2453181169971383  0.754682186141619  1.0000
  O   O2        1.0  0.7546816415908567  0.7546822334736323  0.24531832948388757  1.0000
  O   O3        1.0  0.754681936283621  0.24531764325481517  0.2453184908862445  1.0000
  O   O4        1.0  0.24531768530854325  0.754681904404331  0.7546822011668614  1.0000
  O   O5        1.0  0.24531760666524782  0.7546819230736453  0.24531845142132322  1.0000
  O   O6        1.0  0.7546816116933461  0.24531817227623276  0.7546823919969999  1.0000
