data_image0
_chemical_formula_structural       Pd2MoF6
_chemical_formula_sum              "Pd2 Mo1 F6"
_cell_length_a       5.66891111483719
_cell_length_b       5.66891186799513
_cell_length_c       5.668910240875523
_cell_angle_alpha    60.00000108897371
_cell_angle_beta     60.00000301721766
_cell_angle_gamma    60.00000291020077

_space_group_name_H-M_alt    "P 1"
_space_group_IT_number       1

loop_
  _space_group_symop_operation_xyz
  'x, y, z'

loop_
  _atom_site_type_symbol
  _atom_site_label
  _atom_site_symmetry_multiplicity
  _atom_site_fract_x
  _atom_site_fract_y
  _atom_site_fract_z
  _atom_site_occupancy
  Pd  Pd1       1.0  0.2500001516289781  0.25000023899028856  0.24999984477298168  1.0000
  Pd  Pd2       1.0  0.75000003474585  0.749999783652843  0.7500000222997653  1.0000
  Mo  Mo1       1.0  0.9999999991774873  0.9999999719140334  9.383457746492759e-08  1.0000
  F   F1        1.0  0.24619338673811347  0.24619342001502584  0.7538065769543201  1.0000
  F   F2        1.0  0.7538064560396048  0.7538065334934376  0.24619349295631057  1.0000
  F   F3        1.0  0.7538064596895391  0.24619359799077908  0.24619339535282136  1.0000
  F   F4        1.0  0.2461933371819223  0.7538065910076527  0.7538065850579619  1.0000
  F   F5        1.0  0.2461935049084756  0.7538063458816964  0.24619348512460112  1.0000
  F   F6        1.0  0.7538065516625804  0.24619354065255197  0.7538065448926112  1.0000
