data_image0
_chemical_formula_structural       Pd2MoCl6
_chemical_formula_sum              "Pd2 Mo1 Cl6"
_cell_length_a       6.8048246038893945
_cell_length_b       6.804824745542626
_cell_length_c       6.804824587072965
_cell_angle_alpha    59.99999865054368
_cell_angle_beta     59.999998959781294
_cell_angle_gamma    59.999999973217626

_space_group_name_H-M_alt    "P 1"
_space_group_IT_number       1

loop_
  _space_group_symop_operation_xyz
  'x, y, z'

loop_
  _atom_site_type_symbol
  _atom_site_label
  _atom_site_symmetry_multiplicity
  _atom_site_fract_x
  _atom_site_fract_y
  _atom_site_fract_z
  _atom_site_occupancy
  Pd  Pd1       1.0  0.25000002751774003  0.2500001190047941  0.2499998539645439  1.0000
  Pd  Pd2       1.0  0.7499999636743856  0.750000006049792  0.7499998071021698  1.0000
  Mo  Mo1       1.0  1.0695976801417024e-08  0.9999999730027231  4.782838143311547e-08  1.0000
  Cl  Cl1       1.0  0.2437318112967848  0.2437317969189339  0.7562682432545597  1.0000
  Cl  Cl2       1.0  0.7562681962496182  0.756268182350353  0.24373189987861635  1.0000
  Cl  Cl3       1.0  0.7562682127422778  0.24373176876594438  0.24373184906537115  1.0000
  Cl  Cl4       1.0  0.24373186960532367  0.7562681439100639  0.7562681944433816  1.0000
  Cl  Cl5       1.0  0.2437317846717355  0.7562681666524405  0.24373189556134583  1.0000
  Cl  Cl6       1.0  0.7562681299223999  0.2437318522128525  0.7562681919554078  1.0000
