data_image0
_chemical_formula_structural       Pd2MgBr6
_chemical_formula_sum              "Pd2 Mg1 Br6"
_cell_length_a       7.076116116862032
_cell_length_b       7.07611609354172
_cell_length_c       7.076116224422536
_cell_angle_alpha    59.99999919886682
_cell_angle_beta     59.99999950863324
_cell_angle_gamma    59.999999961631985

_space_group_name_H-M_alt    "P 1"
_space_group_IT_number       1

loop_
  _space_group_symop_operation_xyz
  'x, y, z'

loop_
  _atom_site_type_symbol
  _atom_site_label
  _atom_site_symmetry_multiplicity
  _atom_site_fract_x
  _atom_site_fract_y
  _atom_site_fract_z
  _atom_site_occupancy
  Pd  Pd1       1.0  0.24999997591678852  0.24999999182738578  0.25000001265302985  1.0000
  Pd  Pd2       1.0  0.7500000293026747  0.7499999841362337  0.7499999475257818  1.0000
  Mg  Mg1       1.0  0.9999999946435476  0.9999999671145124  2.76001976337462e-08  1.0000
  Br  Br1       1.0  0.2564600014571408  0.25646000554475135  0.7435399884633779  1.0000
  Br  Br2       1.0  0.7435400003826957  0.7435400050351705  0.2564600408893718  1.0000
  Br  Br3       1.0  0.7435399631516064  0.25646005210137546  0.25645999643407613  1.0000
  Br  Br4       1.0  0.2564600356055644  0.7435399775175129  0.7435399924368172  1.0000
  Br  Br5       1.0  0.2564600098425653  0.7435399958919312  0.2564600202392094  1.0000
  Br  Br6       1.0  0.743539988634628  0.25646001988043604  0.743539977108138  1.0000
