data_image0
_chemical_formula_structural       Pd2MgCl6
_chemical_formula_sum              "Pd2 Mg1 Cl6"
_cell_length_a       6.613199340710942
_cell_length_b       6.613198999287835
_cell_length_c       6.61319904048169
_cell_angle_alpha    59.999999544496475
_cell_angle_beta     59.99999951478506
_cell_angle_gamma    59.999994593972296

_space_group_name_H-M_alt    "P 1"
_space_group_IT_number       1

loop_
  _space_group_symop_operation_xyz
  'x, y, z'

loop_
  _atom_site_type_symbol
  _atom_site_label
  _atom_site_symmetry_multiplicity
  _atom_site_fract_x
  _atom_site_fract_y
  _atom_site_fract_z
  _atom_site_occupancy
  Pd  Pd1       1.0  0.24999987375260577  0.24999966687189404  0.2500002541562956  1.0000
  Pd  Pd2       1.0  0.749999961616848  0.7499999228969447  0.7500003413344533  1.0000
  Mg  Mg1       1.0  3.225813608125514e-08  0.9999999870362052  0.9999999374283671  1.0000
  Cl  Cl1       1.0  0.2561803097673915  0.2561805665434111  0.7438196088541762  1.0000
  Cl  Cl2       1.0  0.7438196262465097  0.7438195751126115  0.2561802914116494  1.0000
  Cl  Cl3       1.0  0.7438196404598919  0.2561805012008274  0.2561803544566216  1.0000
  Cl  Cl4       1.0  0.25618042821779474  0.7438197034221833  0.7438193527297838  1.0000
  Cl  Cl5       1.0  0.25618052583307305  0.7438197122516043  0.2561803262571871  1.0000
  Cl  Cl6       1.0  0.7438196023890737  0.2561803608815029  0.743819533335755  1.0000
