data_image0
_chemical_formula_structural       Pd2MnBr6
_chemical_formula_sum              "Pd2 Mn1 Br6"
_cell_length_a       7.109942775107745
_cell_length_b       7.109942738283028
_cell_length_c       7.1099427345381665
_cell_angle_alpha    59.99999863367112
_cell_angle_beta     59.999998754999574
_cell_angle_gamma    59.99999989854505

_space_group_name_H-M_alt    "P 1"
_space_group_IT_number       1

loop_
  _space_group_symop_operation_xyz
  'x, y, z'

loop_
  _atom_site_type_symbol
  _atom_site_label
  _atom_site_symmetry_multiplicity
  _atom_site_fract_x
  _atom_site_fract_y
  _atom_site_fract_z
  _atom_site_occupancy
  Pd  Pd1       1.0  0.2500002677466054  0.24999977035119142  0.24999997601187454  1.0000
  Pd  Pd2       1.0  0.7499997216350884  0.7499999346277147  0.7499998166824989  1.0000
  Mn  Mn1       1.0  3.248128918741216e-08  4.40098723317916e-18  1.4701939010136548e-08  1.0000
  Br  Br1       1.0  0.23071176690701856  0.23071200167090497  0.7692881551675314  1.0000
  Br  Br2       1.0  0.7692880956088146  0.7692881959660234  0.23071195252506288  1.0000
  Br  Br3       1.0  0.7692880198597052  0.23071185991314658  0.2307120317222852  1.0000
  Br  Br4       1.0  0.2307120632531507  0.7692881534076687  0.7692880339196755  1.0000
  Br  Br5       1.0  0.23071191959664447  0.7692881399897917  0.23071189701162131  1.0000
  Br  Br6       1.0  0.7692881238321497  0.23071193878908328  0.7692881205813128  1.0000
