data_image0
_chemical_formula_structural       Pd2MoI6
_chemical_formula_sum              "Pd2 Mo1 I6"
_cell_length_a       7.622671338252251
_cell_length_b       7.622671437654876
_cell_length_c       7.622671405874947
_cell_angle_alpha    60.00000045615394
_cell_angle_beta     60.00000021672224
_cell_angle_gamma    60.00000042979947

_space_group_name_H-M_alt    "P 1"
_space_group_IT_number       1

loop_
  _space_group_symop_operation_xyz
  'x, y, z'

loop_
  _atom_site_type_symbol
  _atom_site_label
  _atom_site_symmetry_multiplicity
  _atom_site_fract_x
  _atom_site_fract_y
  _atom_site_fract_z
  _atom_site_occupancy
  Pd  Pd1       1.0  0.25000001219688145  0.24999998921665995  0.2499999978493148  1.0000
  Pd  Pd2       1.0  0.7499999529996569  0.7499999821104009  0.7500000491032439  1.0000
  Mo  Mo1       1.0  0.9999999897637898  0.9999999807194386  0.9999999767139804  1.0000
  I   I1        1.0  0.2535613599386381  0.2535612736044396  0.7464386827333592  1.0000
  I   I2        1.0  0.7464386988697874  0.7464387668112992  0.2535612815570414  1.0000
  I   I3        1.0  0.7464386834742748  0.2535613243254602  0.25356128986911397  1.0000
  I   I4        1.0  0.2535612945286742  0.7464386903828636  0.746438728989608  1.0000
  I   I5        1.0  0.25356130706725527  0.7464386815213592  0.25356128432907277  1.0000
  I   I6        1.0  0.7464386980345119  0.2535613155131166  0.7464387088271472  1.0000
