data_image0
_chemical_formula_structural       Pd2MoBr6
_chemical_formula_sum              "Pd2 Mo1 Br6"
_cell_length_a       7.159612206080648
_cell_length_b       7.159611672804124
_cell_length_c       7.159611819297387
_cell_angle_alpha    59.99999975417922
_cell_angle_beta     60.00000110184972
_cell_angle_gamma    60.000001251377924

_space_group_name_H-M_alt    "P 1"
_space_group_IT_number       1

loop_
  _space_group_symop_operation_xyz
  'x, y, z'

loop_
  _atom_site_type_symbol
  _atom_site_label
  _atom_site_symmetry_multiplicity
  _atom_site_fract_x
  _atom_site_fract_y
  _atom_site_fract_z
  _atom_site_occupancy
  Pd  Pd1       1.0  0.25000021287033175  0.25000009501037734  0.2500001445273416  1.0000
  Pd  Pd2       1.0  0.7500001310411192  0.7499999788282885  0.7500003837397141  1.0000
  Mo  Mo1       1.0  0.9999999743098575  0.9999999657873926  0.999999981066043  1.0000
  Br  Br1       1.0  0.24607100260949977  0.2460711639891722  0.753928751512686  1.0000
  Br  Br2       1.0  0.753928893531233  0.7539288790581277  0.24607093497121715  1.0000
  Br  Br3       1.0  0.7539287953011106  0.24607111787691274  0.24607105851672106  1.0000
  Br  Br4       1.0  0.24607106177472005  0.7539288875365202  0.7539288115758384  1.0000
  Br  Br5       1.0  0.24607113809689407  0.7539288529487027  0.24607102526393657  1.0000
  Br  Br6       1.0  0.7539287971116188  0.24607105838006532  0.7539288988964981  1.0000
