data_image0
_chemical_formula_structural       Pd2MnCl6
_chemical_formula_sum              "Pd2 Mn1 Cl6"
_cell_length_a       6.747485696485626
_cell_length_b       6.747485944250729
_cell_length_c       6.747486230711234
_cell_angle_alpha    59.99999972212881
_cell_angle_beta     59.99999700790249
_cell_angle_gamma    59.99999992746383

_space_group_name_H-M_alt    "P 1"
_space_group_IT_number       1

loop_
  _space_group_symop_operation_xyz
  'x, y, z'

loop_
  _atom_site_type_symbol
  _atom_site_label
  _atom_site_symmetry_multiplicity
  _atom_site_fract_x
  _atom_site_fract_y
  _atom_site_fract_z
  _atom_site_occupancy
  Pd  Pd1       1.0  0.2500001917777614  0.24999998196002268  0.24999978482406213  1.0000
  Pd  Pd2       1.0  0.7500000021468768  0.7500001201309089  0.7499998444185203  1.0000
  Mn  Mn1       1.0  8.993993849700371e-08  0.9999999201350342  6.758214959845946e-08  1.0000
  Cl  Cl1       1.0  0.23436200078075467  0.23436207824796398  0.765638061011006  1.0000
  Cl  Cl2       1.0  0.7656378521107732  0.7656379893558293  0.23436217688918864  1.0000
  Cl  Cl3       1.0  0.7656377006406694  0.23436213049522112  0.23436216231895213  1.0000
  Cl  Cl4       1.0  0.23436218803407757  0.7656378554284907  0.7656379844131007  1.0000
  Cl  Cl5       1.0  0.23436214443597578  0.7656378279287449  0.23436201621356786  1.0000
  Cl  Cl6       1.0  0.7656378137290507  0.23436210354157716  0.7656378947668949  1.0000
