data_image0
_chemical_formula_structural       Pd2NbCl6
_chemical_formula_sum              "Pd2 Nb1 Cl6"
_cell_length_a       6.849989131193204
_cell_length_b       6.849989190270525
_cell_length_c       6.849989271078729
_cell_angle_alpha    60.00000035668401
_cell_angle_beta     60.00000191274645
_cell_angle_gamma    59.9999986532931

_space_group_name_H-M_alt    "P 1"
_space_group_IT_number       1

loop_
  _space_group_symop_operation_xyz
  'x, y, z'

loop_
  _atom_site_type_symbol
  _atom_site_label
  _atom_site_symmetry_multiplicity
  _atom_site_fract_x
  _atom_site_fract_y
  _atom_site_fract_z
  _atom_site_occupancy
  Pd  Pd1       1.0  0.24999992228473328  0.24999975026459095  0.25000012980198333  1.0000
  Pd  Pd2       1.0  0.7500000149142799  0.7499998265141653  0.7500003278812339  1.0000
  Nb  Nb1       1.0  2.9524503298779432e-08  4.291083657316841e-08  0.9999998878698032  1.0000
  Cl  Cl1       1.0  0.24596476153533864  0.24596476322493396  0.7540352509613913  1.0000
  Cl  Cl2       1.0  0.7540352482418454  0.7540353392115757  0.24596468278599795  1.0000
  Cl  Cl3       1.0  0.7540352665984505  0.24596482363519565  0.24596457589647527  1.0000
  Cl  Cl4       1.0  0.2459646996047426  0.7540353538952802  0.7540352676382545  1.0000
  Cl  Cl5       1.0  0.24596472210933365  0.7540353831696895  0.24596459925971492  1.0000
  Cl  Cl6       1.0  0.7540353463604754  0.2459647353583829  0.7540352576794614  1.0000
