data_image0
_chemical_formula_structural       Pd2NiCl6
_chemical_formula_sum              "Pd2 Ni1 Cl6"
_cell_length_a       6.57992658081157
_cell_length_b       6.579926094073771
_cell_length_c       6.579926474383835
_cell_angle_alpha    59.99999900376544
_cell_angle_beta     59.99999926437188
_cell_angle_gamma    59.999998728731626

_space_group_name_H-M_alt    "P 1"
_space_group_IT_number       1

loop_
  _space_group_symop_operation_xyz
  'x, y, z'

loop_
  _atom_site_type_symbol
  _atom_site_label
  _atom_site_symmetry_multiplicity
  _atom_site_fract_x
  _atom_site_fract_y
  _atom_site_fract_z
  _atom_site_occupancy
  Pd  Pd1       1.0  0.24999992086707157  0.2500000397024945  0.2500004890814519  1.0000
  Pd  Pd2       1.0  0.7500000211561728  0.7499999962593435  0.7500007489277479  1.0000
  Ni  Ni1       1.0  0.9999999789231312  3.1642700824547734e-08  1.4474144090175295e-08  1.0000
  Cl  Cl1       1.0  0.24296168801260248  0.24296157706767238  0.7570381852887724  1.0000
  Cl  Cl2       1.0  0.7570382924417383  0.7570384067767512  0.24296139085193036  1.0000
  Cl  Cl3       1.0  0.7570383964976997  0.24296179241912982  0.24296134777954376  1.0000
  Cl  Cl4       1.0  0.24296151799482177  0.7570383682521502  0.7570381911659281  1.0000
  Cl  Cl5       1.0  0.24296174094013992  0.7570382245697191  0.242961487734563  1.0000
  Cl  Cl6       1.0  0.757038457956256  0.2429615619731615  0.7570381431861545  1.0000
