data_image0
_chemical_formula_structural       Pd2NiO6
_chemical_formula_sum              "Pd2 Ni1 O6"
_cell_length_a       5.143580951052702
_cell_length_b       5.143581019554344
_cell_length_c       5.143581054402399
_cell_angle_alpha    60.00000044732873
_cell_angle_beta     59.999998070083805
_cell_angle_gamma    59.999999158621556

_space_group_name_H-M_alt    "P 1"
_space_group_IT_number       1

loop_
  _space_group_symop_operation_xyz
  'x, y, z'

loop_
  _atom_site_type_symbol
  _atom_site_label
  _atom_site_symmetry_multiplicity
  _atom_site_fract_x
  _atom_site_fract_y
  _atom_site_fract_z
  _atom_site_occupancy
  Pd  Pd1       1.0  0.24999661006043028  0.2500019643480379  0.2500012157582626  1.0000
  Pd  Pd2       1.0  0.7499995989095861  0.7499981853805437  0.7499990569655909  1.0000
  Ni  Ni1       1.0  1.806608710064411e-07  0.9999999833322066  0.9999999957702906  1.0000
  O   O1        1.0  0.2497411707409505  0.24974214823733587  0.7502582141072789  1.0000
  O   O2        1.0  0.7502597699301738  0.7502572490594536  0.2497424700327832  1.0000
  O   O3        1.0  0.7502591986670937  0.24974160391764946  0.24974145342526166  1.0000
  O   O4        1.0  0.24974232957758466  0.7502583743707515  0.7502584753451861  1.0000
  O   O5        1.0  0.24974165008839902  0.7502577919385914  0.24974166276397017  1.0000
  O   O6        1.0  0.7502595292534447  0.2497426673346707  0.7502575136731842  1.0000
