data_image0
_chemical_formula_structural       Pd2NiF6
_chemical_formula_sum              "Pd2 Ni1 F6"
_cell_length_a       5.202848613384659
_cell_length_b       5.202848650427575
_cell_length_c       5.202848555530981
_cell_angle_alpha    60.000000419366565
_cell_angle_beta     60.00000063348283
_cell_angle_gamma    60.00000058366719

_space_group_name_H-M_alt    "P 1"
_space_group_IT_number       1

loop_
  _space_group_symop_operation_xyz
  'x, y, z'

loop_
  _atom_site_type_symbol
  _atom_site_label
  _atom_site_symmetry_multiplicity
  _atom_site_fract_x
  _atom_site_fract_y
  _atom_site_fract_z
  _atom_site_occupancy
  Pd  Pd1       1.0  0.2500000948430461  0.2500000979166355  0.2499998945938083  1.0000
  Pd  Pd2       1.0  0.7500000351798761  0.750000063058981  0.749999950709855  1.0000
  Ni  Ni1       1.0  0.9999999938573229  1.1769945127379018e-08  1.0304140721201294e-09  1.0000
  F   F1        1.0  0.2488236808613268  0.24882368799815324  0.7511763146607572  1.0000
  F   F2        1.0  0.7511762474497571  0.7511762658264284  0.24882373699636648  1.0000
  F   F3        1.0  0.7511762336804941  0.24882369904801233  0.24882373750937717  1.0000
  F   F4        1.0  0.24882369855390488  0.751176243006624  0.7511763392133262  1.0000
  F   F5        1.0  0.24882373625957155  0.7511762257267476  0.24882370003115303  1.0000
  F   F6        1.0  0.7511762647750542  0.248823716327889  0.7511763230711966  1.0000
