data_image0
_chemical_formula_structural       Pd2NiS6
_chemical_formula_sum              "Pd2 Ni1 S6"
_cell_length_a       6.013043433173865
_cell_length_b       6.01304346016288
_cell_length_c       6.013043633616655
_cell_angle_alpha    59.99999897209276
_cell_angle_beta     60.000000315335264
_cell_angle_gamma    60.00000045941981

_space_group_name_H-M_alt    "P 1"
_space_group_IT_number       1

loop_
  _space_group_symop_operation_xyz
  'x, y, z'

loop_
  _atom_site_type_symbol
  _atom_site_label
  _atom_site_symmetry_multiplicity
  _atom_site_fract_x
  _atom_site_fract_y
  _atom_site_fract_z
  _atom_site_occupancy
  Pd  Pd1       1.0  0.25000001718941556  0.2500000754032153  0.2500000382639815  1.0000
  Pd  Pd2       1.0  0.7500000606907903  0.7499998819881474  0.7499997667955208  1.0000
  Ni  Ni1       1.0  0.9999999670049915  1.8331322250249853e-08  8.994894073553765e-09  1.0000
  S   S1        1.0  0.25271053742211363  0.25271062927164506  0.7472894103039266  1.0000
  S   S2        1.0  0.7472893853376464  0.7472893729296137  0.25271077254279994  1.0000
  S   S3        1.0  0.7472893399891241  0.2527106151816288  0.252710663329657  1.0000
  S   S4        1.0  0.2527106848574172  0.7472894379399722  0.7472893349151748  1.0000
  S   S5        1.0  0.2527105680695365  0.7472893004630892  0.2527106345509589  1.0000
  S   S6        1.0  0.7472894444030913  0.25271066303871265  0.7472893747774982  1.0000
