data_image0
_chemical_formula_structural       Pd2NiBr6
_chemical_formula_sum              "Pd2 Ni1 Br6"
_cell_length_a       6.901324252876973
_cell_length_b       6.901323942729097
_cell_length_c       6.901324168667087
_cell_angle_alpha    59.999999245902565
_cell_angle_beta     60.00000062506596
_cell_angle_gamma    60.000000000736165

_space_group_name_H-M_alt    "P 1"
_space_group_IT_number       1

loop_
  _space_group_symop_operation_xyz
  'x, y, z'

loop_
  _atom_site_type_symbol
  _atom_site_label
  _atom_site_symmetry_multiplicity
  _atom_site_fract_x
  _atom_site_fract_y
  _atom_site_fract_z
  _atom_site_occupancy
  Pd  Pd1       1.0  0.2500001064869154  0.25000010812253126  0.24999981486122833  1.0000
  Pd  Pd2       1.0  0.7499999612920251  0.7500000084795218  0.7500002308012393  1.0000
  Ni  Ni1       1.0  0.9999999750882056  1.952117246665577e-08  0.9999999809603517  1.0000
  Br  Br1       1.0  0.24278119180754745  0.24278120817190013  0.7572188562750233  1.0000
  Br  Br2       1.0  0.7572188654453782  0.7572187291902928  0.2427811045947177  1.0000
  Br  Br3       1.0  0.7572187563253369  0.24278125062627026  0.2427811422328778  1.0000
  Br  Br4       1.0  0.24278115957037164  0.7572187293275706  0.7572188723666397  1.0000
  Br  Br5       1.0  0.24278123949960445  0.7572187722063612  0.24278113592646164  1.0000
  Br  Br6       1.0  0.7572187438298909  0.24278118112769947  0.757218846674074  1.0000
