data_image0
_chemical_formula_structural       Pd2NbBr6
_chemical_formula_sum              "Pd2 Nb1 Br6"
_cell_length_a       7.220372882136858
_cell_length_b       7.220372887747582
_cell_length_c       7.220372875875208
_cell_angle_alpha    60.00000008829434
_cell_angle_beta     60.00000024054494
_cell_angle_gamma    59.99999972753876

_space_group_name_H-M_alt    "P 1"
_space_group_IT_number       1

loop_
  _space_group_symop_operation_xyz
  'x, y, z'

loop_
  _atom_site_type_symbol
  _atom_site_label
  _atom_site_symmetry_multiplicity
  _atom_site_fract_x
  _atom_site_fract_y
  _atom_site_fract_z
  _atom_site_occupancy
  Pd  Pd1       1.0  0.24999996369798289  0.2499999948294789  0.2500000325659947  1.0000
  Pd  Pd2       1.0  0.7500000852460266  0.7500000065394901  0.7499999799016286  1.0000
  Nb  Nb1       1.0  0.9999999852355762  0.9999999915188255  0.9999999617638783  1.0000
  Br  Br1       1.0  0.24746495845516783  0.2474650037531187  0.7525350282365696  1.0000
  Br  Br2       1.0  0.7525350670492243  0.7525350247556094  0.24746496022146228  1.0000
  Br  Br3       1.0  0.752535064871497  0.24746492201928721  0.2474649411135963  1.0000
  Br  Br4       1.0  0.2474648817220719  0.7525350793496823  0.7525350851350561  1.0000
  Br  Br5       1.0  0.24746491388311662  0.7525350659900303  0.24746496194775583  1.0000
  Br  Br6       1.0  0.7525350790076306  0.24746491163164985  0.7525350502560121  1.0000
