data_image0
_chemical_formula_structural       Pd2NiCl6
_chemical_formula_sum              "Pd2 Ni1 Cl6"
_cell_length_a       6.576343085619989
_cell_length_b       6.576343084999363
_cell_length_c       6.576342926112691
_cell_angle_alpha    59.99999984534148
_cell_angle_beta     60.000000202448945
_cell_angle_gamma    59.999999266531844

_space_group_name_H-M_alt    "P 1"
_space_group_IT_number       1

loop_
  _space_group_symop_operation_xyz
  'x, y, z'

loop_
  _atom_site_type_symbol
  _atom_site_label
  _atom_site_symmetry_multiplicity
  _atom_site_fract_x
  _atom_site_fract_y
  _atom_site_fract_z
  _atom_site_occupancy
  Pd  Pd1       1.0  0.25000024480755567  0.24999980478957526  0.2499998592764952  1.0000
  Pd  Pd2       1.0  0.7500000617167017  0.7499997942880102  0.7500001880064269  1.0000
  Ni  Ni1       1.0  2.9548023460656905e-08  0.9999999851012045  0.9999999850723762  1.0000
  Cl  Cl1       1.0  0.24309519829800066  0.24309533375707373  0.7569048123009059  1.0000
  Cl  Cl2       1.0  0.7569045890025176  0.7569048221629937  0.24309524962588624  1.0000
  Cl  Cl3       1.0  0.7569047706031343  0.2430953766398716  0.24309515435147358  1.0000
  Cl  Cl4       1.0  0.24309516369193426  0.7569047438955565  0.756904745328225  1.0000
  Cl  Cl5       1.0  0.24309531871294668  0.756904746424499  0.24309523812714487  1.0000
  Cl  Cl6       1.0  0.756904658644316  0.24309538714737405  0.7569047293011578  1.0000
