data_image0
_chemical_formula_structural       Pd2OsF6
_chemical_formula_sum              "Pd2 Os1 F6"
_cell_length_a       5.638812338913753
_cell_length_b       5.638810649041664
_cell_length_c       5.6388105488889435
_cell_angle_alpha    60.00000753286398
_cell_angle_beta     60.0000108857065
_cell_angle_gamma    60.00000572036582

_space_group_name_H-M_alt    "P 1"
_space_group_IT_number       1

loop_
  _space_group_symop_operation_xyz
  'x, y, z'

loop_
  _atom_site_type_symbol
  _atom_site_label
  _atom_site_symmetry_multiplicity
  _atom_site_fract_x
  _atom_site_fract_y
  _atom_site_fract_z
  _atom_site_occupancy
  Pd  Pd1       1.0  0.2500005072847401  0.24999956103716206  0.24999984057283886  1.0000
  Pd  Pd2       1.0  0.7499997092515931  0.750000705235367  0.7499996936120804  1.0000
  Os  Os1       1.0  0.999999943262153  4.343979596276867e-09  2.7970357420753554e-08  1.0000
  F   F1        1.0  0.2450490947403637  0.24504834524339072  0.7549513345686542  1.0000
  F   F2        1.0  0.7549508852944199  0.7549515800265117  0.2450489015760456  1.0000
  F   F3        1.0  0.7549511068657155  0.2450486634226171  0.2450489861521801  1.0000
  F   F4        1.0  0.24504863628753346  0.7549513704468269  0.7549511438848504  1.0000
  F   F5        1.0  0.24504864976388854  0.7549512810855525  0.24504890100559273  1.0000
  F   F6        1.0  0.7549511736890807  0.24504862246442  0.7549513338453715  1.0000
