data_image0
_chemical_formula_structural       Pd2OsCl6
_chemical_formula_sum              "Pd2 Os1 Cl6"
_cell_length_a       6.763038182186432
_cell_length_b       6.76303842134094
_cell_length_c       6.763038204737975
_cell_angle_alpha    60.000000829880435
_cell_angle_beta     59.99999858589532
_cell_angle_gamma    59.9999994704544

_space_group_name_H-M_alt    "P 1"
_space_group_IT_number       1

loop_
  _space_group_symop_operation_xyz
  'x, y, z'

loop_
  _atom_site_type_symbol
  _atom_site_label
  _atom_site_symmetry_multiplicity
  _atom_site_fract_x
  _atom_site_fract_y
  _atom_site_fract_z
  _atom_site_occupancy
  Pd  Pd1       1.0  0.2500000554576063  0.24999996820796783  0.2499999523900423  1.0000
  Pd  Pd2       1.0  0.7500000137777398  0.7499999680067636  0.7500000378097738  1.0000
  Os  Os1       1.0  0.9999999688708394  0.9999999909453067  6.149343820094805e-08  1.0000
  Cl  Cl1       1.0  0.24252934024192588  0.24252934354991557  0.7574706664219603  1.0000
  Cl  Cl2       1.0  0.757470618893213  0.7574706361273482  0.2425293763188242  1.0000
  Cl  Cl3       1.0  0.7574706128937589  0.2425294241356285  0.2425293424992205  1.0000
  Cl  Cl4       1.0  0.24252937933530974  0.7574706406557578  0.7574705819925218  1.0000
  Cl  Cl5       1.0  0.2425293783591755  0.757470648513645  0.2425293635870126  1.0000
  Cl  Cl6       1.0  0.757470622235141  0.24252936557145513  0.757470613126382  1.0000
