data_image0
_chemical_formula_structural       Pd2OsI6
_chemical_formula_sum              "Pd2 Os1 I6"
_cell_length_a       7.501052967157355
_cell_length_b       7.501053035298878
_cell_length_c       7.501052837010491
_cell_angle_alpha    59.99999967007826
_cell_angle_beta     59.99999952140938
_cell_angle_gamma    59.99999966103433

_space_group_name_H-M_alt    "P 1"
_space_group_IT_number       1

loop_
  _space_group_symop_operation_xyz
  'x, y, z'

loop_
  _atom_site_type_symbol
  _atom_site_label
  _atom_site_symmetry_multiplicity
  _atom_site_fract_x
  _atom_site_fract_y
  _atom_site_fract_z
  _atom_site_occupancy
  Pd  Pd1       1.0  0.2499999950886689  0.25000006881051584  0.24999998531586015  1.0000
  Pd  Pd2       1.0  0.7500000306739647  0.7499999778445984  0.7500000821988788  1.0000
  Os  Os1       1.0  3.9031618278990416e-09  0.9999999836723608  7.54538499852718e-09  1.0000
  I   I1        1.0  0.2521024376862813  0.25210246630272126  0.7478975361051476  1.0000
  I   I2        1.0  0.7478975700092982  0.7478975052452541  0.25210243268375404  1.0000
  I   I3        1.0  0.747897542435214  0.25210248038928573  0.25210246150018306  1.0000
  I   I4        1.0  0.2521024255778401  0.7478975270794957  0.7478975384987944  1.0000
  I   I5        1.0  0.2521024842975628  0.7478975237128987  0.2521024590062536  1.0000
  I   I6        1.0  0.7478975184997247  0.252102462529952  0.7478975075506485  1.0000
