data_image0
_chemical_formula_structural       Pd2PI6
_chemical_formula_sum              "Pd2 P1 I6"
_cell_length_a       7.509945059212585
_cell_length_b       7.509944965021346
_cell_length_c       7.50994463534941
_cell_angle_alpha    59.999994617826914
_cell_angle_beta     59.999994050364016
_cell_angle_gamma    59.99999450332622

_space_group_name_H-M_alt    "P 1"
_space_group_IT_number       1

loop_
  _space_group_symop_operation_xyz
  'x, y, z'

loop_
  _atom_site_type_symbol
  _atom_site_label
  _atom_site_symmetry_multiplicity
  _atom_site_fract_x
  _atom_site_fract_y
  _atom_site_fract_z
  _atom_site_occupancy
  Pd  Pd1       1.0  0.2500000685708828  0.2500001618005697  0.24999994133148556  1.0000
  Pd  Pd2       1.0  0.7499999095790729  0.7499998885176629  0.7499999242957037  1.0000
  P   P1        1.0  1.0872178255924423e-09  0.9999999967383363  4.502895843761105e-08  1.0000
  I   I1        1.0  0.2579146409668336  0.2579146198408157  0.7420853576367301  1.0000
  I   I2        1.0  0.7420854033462904  0.7420853473050404  0.2579146256836184  1.0000
  I   I3        1.0  0.7420853686368432  0.2579146307823475  0.257914675711919  1.0000
  I   I4        1.0  0.2579146351560547  0.7420853379943371  0.7420853883052467  1.0000
  I   I5        1.0  0.2579146536280173  0.742085341634641  0.257914644100846  1.0000
  I   I6        1.0  0.7420853200185142  0.2579146760669683  0.7420854012060654  1.0000
