data_image0
_chemical_formula_structural       Pd2PSe6
_chemical_formula_sum              "Pd2 P1 Se6"
_cell_length_a       6.272264732484016
_cell_length_b       6.272264696904663
_cell_length_c       6.272264645213128
_cell_angle_alpha    59.99999971628046
_cell_angle_beta     60.00000083987276
_cell_angle_gamma    59.99999947991875

_space_group_name_H-M_alt    "P 1"
_space_group_IT_number       1

loop_
  _space_group_symop_operation_xyz
  'x, y, z'

loop_
  _atom_site_type_symbol
  _atom_site_label
  _atom_site_symmetry_multiplicity
  _atom_site_fract_x
  _atom_site_fract_y
  _atom_site_fract_z
  _atom_site_occupancy
  Pd  Pd1       1.0  0.25000013291714757  0.2499999731565773  0.249999920704531  1.0000
  Pd  Pd2       1.0  0.7500000093224198  0.7499999389960906  0.7500001336004204  1.0000
  P   P1        1.0  3.659590721387554e-08  1.1715814901976658e-08  0.9999999646838956  1.0000
  Se  Se1       1.0  0.2589361318167245  0.25893614659612735  0.7410638388904232  1.0000
  Se  Se2       1.0  0.7410637772139783  0.7410638631883346  0.25893613333693716  1.0000
  Se  Se3       1.0  0.7410638100825597  0.25893619300607545  0.2589361332916576  1.0000
  Se  Se4       1.0  0.2589360889616178  0.7410638577837386  0.7410638744445444  1.0000
  Se  Se5       1.0  0.25893618526612255  0.7410638947108166  0.25893608027696974  1.0000
  Se  Se6       1.0  0.741063823288239  0.2589361092157368  0.7410639264278605  1.0000
