data_image0
_chemical_formula_structural       Pd2PtBr6
_chemical_formula_sum              "Pd2 Pt1 Br6"
_cell_length_a       7.057502688000285
_cell_length_b       7.057502714903631
_cell_length_c       7.0575026830462395
_cell_angle_alpha    59.999999780843886
_cell_angle_beta     60.00000043214138
_cell_angle_gamma    59.999999942208696

_space_group_name_H-M_alt    "P 1"
_space_group_IT_number       1

loop_
  _space_group_symop_operation_xyz
  'x, y, z'

loop_
  _atom_site_type_symbol
  _atom_site_label
  _atom_site_symmetry_multiplicity
  _atom_site_fract_x
  _atom_site_fract_y
  _atom_site_fract_z
  _atom_site_occupancy
  Pd  Pd1       1.0  0.2500000063027869  0.2500000272681811  0.249999990159772  1.0000
  Pd  Pd2       1.0  0.7499999691637231  0.7500000592446046  0.7499999329511504  1.0000
  Pt  Pt1       1.0  1.967932359747276e-09  0.9999999253786622  0.9999999753986354  1.0000
  Br  Br1       1.0  0.2473454172407206  0.24734536510057425  0.7526546098902545  1.0000
  Br  Br2       1.0  0.7526546737815607  0.7526546103478936  0.24734538323846364  1.0000
  Br  Br3       1.0  0.7526545925468988  0.24734538342305826  0.24734540151448056  1.0000
  Br  Br4       1.0  0.2473453673693057  0.7526546319391483  0.7526546981384736  1.0000
  Br  Br5       1.0  0.24734534748276404  0.7526546313599485  0.2473453546013637  1.0000
  Br  Br6       1.0  0.7526546286132912  0.24734536491307907  0.752654651571824  1.0000
