data_image0
_chemical_formula_structural       Pd2PtCl6
_chemical_formula_sum              "Pd2 Pt1 Cl6"
_cell_length_a       6.761200412533243
_cell_length_b       6.761200843298466
_cell_length_c       6.761200383450224
_cell_angle_alpha    59.99999994701348
_cell_angle_beta     59.999998367677286
_cell_angle_gamma    60.0000012605005

_space_group_name_H-M_alt    "P 1"
_space_group_IT_number       1

loop_
  _space_group_symop_operation_xyz
  'x, y, z'

loop_
  _atom_site_type_symbol
  _atom_site_label
  _atom_site_symmetry_multiplicity
  _atom_site_fract_x
  _atom_site_fract_y
  _atom_site_fract_z
  _atom_site_occupancy
  Pd  Pd1       1.0  0.25000007470892277  0.24999992860113865  0.24999995341031625  1.0000
  Pd  Pd2       1.0  0.7500000906521852  0.7500000683866449  0.7499998344845238  1.0000
  Pt  Pt1       1.0  1.8182359422590904e-08  1.8114304389493978e-09  2.254170556339693e-08  1.0000
  Cl  Cl1       1.0  0.24329730217647771  0.24329737431110035  0.7567027277000014  1.0000
  Cl  Cl2       1.0  0.7567025019171263  0.7567026407909861  0.24329746249970366  1.0000
  Cl  Cl3       1.0  0.7567026164006665  0.2432973206431046  0.24329740882783216  1.0000
  Cl  Cl4       1.0  0.24329734816125054  0.7567026383046243  0.7567026493474194  1.0000
  Cl  Cl5       1.0  0.24329736238962327  0.7567025975444363  0.24329735539942748  1.0000
  Cl  Cl6       1.0  0.7567026868210224  0.243297430237671  0.7567025757473396  1.0000
