data_image0
_chemical_formula_structural       Pd2PtI6
_chemical_formula_sum              "Pd2 Pt1 I6"
_cell_length_a       7.4728405560952424
_cell_length_b       7.472840516625289
_cell_length_c       7.472840561433264
_cell_angle_alpha    59.99999996192513
_cell_angle_beta     59.999999430472506
_cell_angle_gamma    59.99999889860401

_space_group_name_H-M_alt    "P 1"
_space_group_IT_number       1

loop_
  _space_group_symop_operation_xyz
  'x, y, z'

loop_
  _atom_site_type_symbol
  _atom_site_label
  _atom_site_symmetry_multiplicity
  _atom_site_fract_x
  _atom_site_fract_y
  _atom_site_fract_z
  _atom_site_occupancy
  Pd  Pd1       1.0  0.250000005417614  0.2500000146062148  0.2499999931781386  1.0000
  Pd  Pd2       1.0  0.7500000192040178  0.749999970066877  0.7499999640839008  1.0000
  Pt  Pt1       1.0  1.3454188957749475e-08  0.9999999967221437  1.766088049182829e-08  1.0000
  I   I1        1.0  0.25320982537219616  0.25320988517706094  0.7467901250611249  1.0000
  I   I2        1.0  0.7467901570604759  0.7467901240799537  0.25320989720696063  1.0000
  I   I3        1.0  0.7467901837810126  0.25320982837656386  0.2532098293239888  1.0000
  I   I4        1.0  0.25320983147570947  0.7467901612133125  0.7467901569256976  1.0000
  I   I5        1.0  0.25320982610426096  0.7467901576594275  0.25320984749330017  1.0000
  I   I6        1.0  0.7467901375048598  0.25320986634794085  0.7467901647677713  1.0000
