data_image0
_chemical_formula_structural       Pd2PCl6
_chemical_formula_sum              "Pd2 P1 Cl6"
_cell_length_a       6.662024321392718
_cell_length_b       6.662024963186722
_cell_length_c       6.662024287788581
_cell_angle_alpha    60.00000356205066
_cell_angle_beta     60.000000394135526
_cell_angle_gamma    60.00000339624791

_space_group_name_H-M_alt    "P 1"
_space_group_IT_number       1

loop_
  _space_group_symop_operation_xyz
  'x, y, z'

loop_
  _atom_site_type_symbol
  _atom_site_label
  _atom_site_symmetry_multiplicity
  _atom_site_fract_x
  _atom_site_fract_y
  _atom_site_fract_z
  _atom_site_occupancy
  Pd  Pd1       1.0  0.2500000249847226  0.2499999929961069  0.2499999537220918  1.0000
  Pd  Pd2       1.0  0.7500000578138317  0.74999999921069  0.7499999692015629  1.0000
  P   P1        1.0  0.9999999702372374  0.9999999852928224  3.724542265227342e-08  1.0000
  Cl  Cl1       1.0  0.2332663919943474  0.2332663563815062  0.7667335908870199  1.0000
  Cl  Cl2       1.0  0.7667335959826899  0.7667336395020852  0.23326642564244443  1.0000
  Cl  Cl3       1.0  0.7667336542802263  0.23326638512952638  0.23326637053865779  1.0000
  Cl  Cl4       1.0  0.23326637715143198  0.7667335739861211  0.7667336171296986  1.0000
  Cl  Cl5       1.0  0.2332663696124818  0.7667336761341121  0.23326636879524631  1.0000
  Cl  Cl6       1.0  0.7667335645974899  0.2332663822549843  0.7667336583754507  1.0000
