data_image0
_chemical_formula_structural       Pd2PtBr6
_chemical_formula_sum              "Pd2 Pt1 Br6"
_cell_length_a       7.057664550142237
_cell_length_b       7.057664601171106
_cell_length_c       7.057664493991105
_cell_angle_alpha    59.999998956730096
_cell_angle_beta     59.999998898417985
_cell_angle_gamma    59.999999566027164

_space_group_name_H-M_alt    "P 1"
_space_group_IT_number       1

loop_
  _space_group_symop_operation_xyz
  'x, y, z'

loop_
  _atom_site_type_symbol
  _atom_site_label
  _atom_site_symmetry_multiplicity
  _atom_site_fract_x
  _atom_site_fract_y
  _atom_site_fract_z
  _atom_site_occupancy
  Pd  Pd1       1.0  0.24999991655593712  0.2500001467603373  0.2500000454488956  1.0000
  Pd  Pd2       1.0  0.7500000344080866  0.74999983638264  0.7500000139627754  1.0000
  Pt  Pt1       1.0  3.148277652541129e-08  0.9999999791759179  1.592414247734553e-08  1.0000
  Br  Br1       1.0  0.24731963815577526  0.24731973936715387  0.7526803009824656  1.0000
  Br  Br2       1.0  0.7526803310689691  0.7526802871593279  0.24731970210290435  1.0000
  Br  Br3       1.0  0.7526803415323605  0.2473197121242146  0.24731967068785307  1.0000
  Br  Br4       1.0  0.24731970923342256  0.7526802710187637  0.7526802948990576  1.0000
  Br  Br5       1.0  0.2473197096543271  0.752680310238774  0.2473196698760348  1.0000
  Br  Br6       1.0  0.7526802957629858  0.2473197058756673  0.752680293397984  1.0000
