data_image0
_chemical_formula_structural       Pd2PO6
_chemical_formula_sum              "Pd2 P1 O6"
_cell_length_a       4.537575916948023
_cell_length_b       4.537575525814457
_cell_length_c       4.5375755882989495
_cell_angle_alpha    59.999997519274274
_cell_angle_beta     59.99999694084677
_cell_angle_gamma    59.99999322240396

_space_group_name_H-M_alt    "P 1"
_space_group_IT_number       1

loop_
  _space_group_symop_operation_xyz
  'x, y, z'

loop_
  _atom_site_type_symbol
  _atom_site_label
  _atom_site_symmetry_multiplicity
  _atom_site_fract_x
  _atom_site_fract_y
  _atom_site_fract_z
  _atom_site_occupancy
  Pd  Pd1       1.0  0.250000088918712  0.2500001288210456  0.2499995741592801  1.0000
  Pd  Pd2       1.0  0.7499991560622145  0.7500003594720055  0.7500002433706688  1.0000
  P   P1        1.0  0.9999987226311637  3.5088531699937785e-07  2.3563232185523256e-06  1.0000
  O   O1        1.0  0.2620031538270106  0.2620032374413831  0.7379970543875036  1.0000
  O   O2        1.0  0.737997622499109  0.7379975045686445  0.2620026221139261  1.0000
  O   O3        1.0  0.7379981794605373  0.2620017664397343  0.26200212629064895  1.0000
  O   O4        1.0  0.26200385394396153  0.7379961738863273  0.7379963500946322  1.0000
  O   O5        1.0  0.2620023976141161  0.7379975218621444  0.2620027556877089  1.0000
  O   O6        1.0  0.7379968821420473  0.2620031445726573  0.7379969575875621  1.0000
