data_image0
_chemical_formula_structural       Pd2PF6
_chemical_formula_sum              "Pd2 P1 F6"
_cell_length_a       5.825451228798361
_cell_length_b       5.8254277885232915
_cell_length_c       5.825485931713161
_cell_angle_alpha    59.99970019209459
_cell_angle_beta     59.99978871624021
_cell_angle_gamma    59.99986231464597

_space_group_name_H-M_alt    "P 1"
_space_group_IT_number       1

loop_
  _space_group_symop_operation_xyz
  'x, y, z'

loop_
  _atom_site_type_symbol
  _atom_site_label
  _atom_site_symmetry_multiplicity
  _atom_site_fract_x
  _atom_site_fract_y
  _atom_site_fract_z
  _atom_site_occupancy
  Pd  Pd1       1.0  0.24999203905528894  0.25000749423413593  0.25000787078588305  1.0000
  Pd  Pd2       1.0  0.749996419358023  0.7499920102603199  0.7499971258582737  1.0000
  P   P1        1.0  2.1877012958735133e-06  6.55957988152542e-07  0.9999999497296752  1.0000
  F   F1        1.0  0.20170736231007427  0.20171205347317286  0.7982940397056143  1.0000
  F   F2        1.0  0.7982987812349237  0.7982904890408233  0.2017050035776747  1.0000
  F   F3        1.0  0.7982926275272737  0.2017067495211338  0.2017067231982337  1.0000
  F   F4        1.0  0.20171034573415464  0.7982955575173756  0.7982927595509535  1.0000
  F   F5        1.0  0.20171045482727146  0.7982907473674902  0.20170558420185386  1.0000
  F   F6        1.0  0.7982948118044495  0.201706915431103  0.7982948096252036  1.0000
