data_image0
_chemical_formula_structural       Pd2RhSe6
_chemical_formula_sum              "Pd2 Rh1 Se6"
_cell_length_a       6.29396337302183
_cell_length_b       6.293963334881794
_cell_length_c       6.293963292872229
_cell_angle_alpha    59.99999995809199
_cell_angle_beta     59.9999997182986
_cell_angle_gamma    59.99999978558227

_space_group_name_H-M_alt    "P 1"
_space_group_IT_number       1

loop_
  _space_group_symop_operation_xyz
  'x, y, z'

loop_
  _atom_site_type_symbol
  _atom_site_label
  _atom_site_symmetry_multiplicity
  _atom_site_fract_x
  _atom_site_fract_y
  _atom_site_fract_z
  _atom_site_occupancy
  Pd  Pd1       1.0  0.25000001012948236  0.25000001439922165  0.24999997535563973  1.0000
  Pd  Pd2       1.0  0.7499999751082992  0.7500000879534582  0.7499999027302647  1.0000
  Rh  Rh1       1.0  2.6221969456686097e-08  3.891808080299359e-09  0.9999999865319351  1.0000
  Se  Se1       1.0  0.2784075498239983  0.27840750850716084  0.7215924842345193  1.0000
  Se  Se2       1.0  0.7215924877497097  0.7215924148223465  0.278407582712105  1.0000
  Se  Se3       1.0  0.7215924803663979  0.27840744607699264  0.2784075892884223  1.0000
  Se  Se4       1.0  0.2784075849491253  0.7215924655770904  0.7215924505591184  1.0000
  Se  Se5       1.0  0.2784074840972778  0.7215924968541597  0.27840754762071596  1.0000
  Se  Se6       1.0  0.7215924079280498  0.2784075549050149  0.7215924865758413  1.0000
