data_image0
_chemical_formula_structural       Pd2RuF6
_chemical_formula_sum              "Pd2 Ru1 F6"
_cell_length_a       5.711110690350835
_cell_length_b       5.71110920114214
_cell_length_c       5.711109681775843
_cell_angle_alpha    59.99999772284661
_cell_angle_beta     60.000002827852164
_cell_angle_gamma    59.99999503624209

_space_group_name_H-M_alt    "P 1"
_space_group_IT_number       1

loop_
  _space_group_symop_operation_xyz
  'x, y, z'

loop_
  _atom_site_type_symbol
  _atom_site_label
  _atom_site_symmetry_multiplicity
  _atom_site_fract_x
  _atom_site_fract_y
  _atom_site_fract_z
  _atom_site_occupancy
  Pd  Pd1       1.0  0.25000042476993795  0.24999979376976494  0.2500001239699291  1.0000
  Pd  Pd2       1.0  0.7499991216564743  0.7500003742108112  0.7499997541200822  1.0000
  Ru  Ru1       1.0  3.141051065755129e-08  0.9999999785550424  0.9999999932662494  1.0000
  F   F1        1.0  0.24093455296619828  0.24093425531300525  0.7590654929296363  1.0000
  F   F2        1.0  0.7590655418124385  0.7590657839978308  0.24093449049429597  1.0000
  F   F3        1.0  0.7590653908781296  0.24093432817231375  0.240934463628621  1.0000
  F   F4        1.0  0.24093460981266837  0.7590657325834801  0.7590655648716199  1.0000
  F   F5        1.0  0.24093463856137537  0.7590654084650069  0.24093430292125811  1.0000
  F   F6        1.0  0.7590656915123386  0.24093434348339746  0.7590657240460769  1.0000
