data_image0
_chemical_formula_structural       Pd2RhI6
_chemical_formula_sum              "Pd2 Rh1 I6"
_cell_length_a       7.441142505050403
_cell_length_b       7.441142589467897
_cell_length_c       7.441142555385474
_cell_angle_alpha    60.00000037762673
_cell_angle_beta     60.00000015485735
_cell_angle_gamma    60.000000521604896

_space_group_name_H-M_alt    "P 1"
_space_group_IT_number       1

loop_
  _space_group_symop_operation_xyz
  'x, y, z'

loop_
  _atom_site_type_symbol
  _atom_site_label
  _atom_site_symmetry_multiplicity
  _atom_site_fract_x
  _atom_site_fract_y
  _atom_site_fract_z
  _atom_site_occupancy
  Pd  Pd1       1.0  0.24999998590591715  0.2500000453985377  0.24999995085954227  1.0000
  Pd  Pd2       1.0  0.7500000052931702  0.7499999469159997  0.7499999341817611  1.0000
  Rh  Rh1       1.0  8.3075293868986e-09  0.9999999983540904  1.2795745868924164e-08  1.0000
  I   I1        1.0  0.2517778535114705  0.25177785062272096  0.748222151047618  1.0000
  I   I2        1.0  0.7482221406970434  0.7482221466295458  0.25177788994178507  1.0000
  I   I3        1.0  0.748222182488109  0.2517778312623179  0.25177786695201315  1.0000
  I   I4        1.0  0.251777851534161  0.7482221396553937  0.7482221699855488  1.0000
  I   I5        1.0  0.25177784981136464  0.7482221670736121  0.2517778728758178  1.0000
  I   I6        1.0  0.7482221180787445  0.25177788120185474  0.7482221557611877  1.0000
