data_image0
_chemical_formula_structural       Pd2ReF6
_chemical_formula_sum              "Pd2 Re1 F6"
_cell_length_a       5.50855968971448
_cell_length_b       5.5085584383876585
_cell_length_c       5.508559108585455
_cell_angle_alpha    59.99999875185836
_cell_angle_beta     59.99999906622163
_cell_angle_gamma    59.99999719471517

_space_group_name_H-M_alt    "P 1"
_space_group_IT_number       1

loop_
  _space_group_symop_operation_xyz
  'x, y, z'

loop_
  _atom_site_type_symbol
  _atom_site_label
  _atom_site_symmetry_multiplicity
  _atom_site_fract_x
  _atom_site_fract_y
  _atom_site_fract_z
  _atom_site_occupancy
  Pd  Pd1       1.0  0.25000009235936055  0.24999981699799834  0.2500001539822605  1.0000
  Pd  Pd2       1.0  0.7499999397467588  0.7500002491763434  0.749999877526729  1.0000
  Re  Re1       1.0  0.9999999625228416  0.9999999866598979  0.999999900149015  1.0000
  F   F1        1.0  0.24900915153252665  0.24900898770444688  0.7509909184619618  1.0000
  F   F2        1.0  0.7509908811258575  0.7509909761958279  0.2490091076318669  1.0000
  F   F3        1.0  0.7509908985042288  0.2490089832396497  0.24900917006819995  1.0000
  F   F4        1.0  0.24900912748410978  0.7509910006707664  0.7509908221252303  1.0000
  F   F5        1.0  0.24900904671975124  0.7509909453531004  0.24900911680372143  1.0000
  F   F6        1.0  0.7509909126553885  0.24900908747099892  0.7509909151005347  1.0000
