data_image0
_chemical_formula_structural       Pd2ReBr6
_chemical_formula_sum              "Pd2 Re1 Br6"
_cell_length_a       7.1251370472084465
_cell_length_b       7.125137515122402
_cell_length_c       7.1251371482678945
_cell_angle_alpha    59.99999900213756
_cell_angle_beta     59.99999788871495
_cell_angle_gamma    59.9999997622416

_space_group_name_H-M_alt    "P 1"
_space_group_IT_number       1

loop_
  _space_group_symop_operation_xyz
  'x, y, z'

loop_
  _atom_site_type_symbol
  _atom_site_label
  _atom_site_symmetry_multiplicity
  _atom_site_fract_x
  _atom_site_fract_y
  _atom_site_fract_z
  _atom_site_occupancy
  Pd  Pd1       1.0  0.25000000778486514  0.24999972832546596  0.2500000614056166  1.0000
  Pd  Pd2       1.0  0.7499999927622015  0.7499999963005033  0.7499997236768902  1.0000
  Re  Re1       1.0  0.999999975952167  4.297267365664111e-08  4.9483812823054445e-08  1.0000
  Br  Br1       1.0  0.2455975836145254  0.2455975575021739  0.7544024623243877  1.0000
  Br  Br2       1.0  0.7544024021447351  0.7544025177808112  0.24559764183167673  1.0000
  Br  Br3       1.0  0.7544024523990387  0.24559754207634765  0.24559765751941978  1.0000
  Br  Br4       1.0  0.24559761414596268  0.7544024610125446  0.754402386201551  1.0000
  Br  Br5       1.0  0.24559755328848779  0.7544025181264408  0.24559760796025745  1.0000
  Br  Br6       1.0  0.7544024254799734  0.24559761216156958  0.7544024244703132  1.0000
