data_image0
_chemical_formula_structural       Pd2RhO6
_chemical_formula_sum              "Pd2 Rh1 O6"
_cell_length_a       4.450973285175785
_cell_length_b       5.5566539481102355
_cell_length_c       4.048194679911175
_cell_angle_alpha    47.190654722661755
_cell_angle_beta     48.62206297567046
_cell_angle_gamma    65.48170792104669

_space_group_name_H-M_alt    "P 1"
_space_group_IT_number       1

loop_
  _space_group_symop_operation_xyz
  'x, y, z'

loop_
  _atom_site_type_symbol
  _atom_site_label
  _atom_site_symmetry_multiplicity
  _atom_site_fract_x
  _atom_site_fract_y
  _atom_site_fract_z
  _atom_site_occupancy
  Pd  Pd1       1.0  0.3339468545060091  0.07421349223855866  0.48915523645480985  1.0000
  Pd  Pd2       1.0  0.8652807221066338  0.12440076508255049  0.2293675926504588  1.0000
  Rh  Rh1       1.0  0.909583125489783  0.03284721175053229  0.07869037156227203  1.0000
  O   O1        1.0  0.5637926804683948  0.7169124402709595  0.9867803351429999  1.0000
  O   O2        1.0  0.3833148587871983  0.011170867870516465  0.8534490854623987  1.0000
  O   O3        1.0  0.47588445250355654  0.9955215872479535  0.7412704624382864  1.0000
  O   O4        1.0  0.7920013028851329  0.10845524205388091  0.48625496042250815  1.0000
  O   O5        1.0  0.41791475523817917  0.008887988539843406  0.7895749806306291  1.0000
  O   O6        1.0  0.8114172419617935  0.01831920095382733  0.06844892001514391  1.0000
