data_image0
_chemical_formula_structural       Pd2RhBr6
_chemical_formula_sum              "Pd2 Rh1 Br6"
_cell_length_a       7.025805098179096
_cell_length_b       7.025804792159453
_cell_length_c       7.0258047986978776
_cell_angle_alpha    59.99999842529998
_cell_angle_beta     59.999998365244096
_cell_angle_gamma    59.99999818582644

_space_group_name_H-M_alt    "P 1"
_space_group_IT_number       1

loop_
  _space_group_symop_operation_xyz
  'x, y, z'

loop_
  _atom_site_type_symbol
  _atom_site_label
  _atom_site_symmetry_multiplicity
  _atom_site_fract_x
  _atom_site_fract_y
  _atom_site_fract_z
  _atom_site_occupancy
  Pd  Pd1       1.0  0.2500000160751911  0.24999997997442902  0.2500001585036794  1.0000
  Pd  Pd2       1.0  0.7500000738068292  0.7500000061652479  0.7499998460363896  1.0000
  Rh  Rh1       1.0  0.9999999849263963  0.9999999860543248  1.4509639952545621e-08  1.0000
  Br  Br1       1.0  0.24793242569983878  0.24793246786971188  0.7520674921394368  1.0000
  Br  Br2       1.0  0.7520675802632992  0.752067523499594  0.24793246065249372  1.0000
  Br  Br3       1.0  0.7520674375362633  0.24793247441689809  0.24793249000609513  1.0000
  Br  Br4       1.0  0.2479325032502974  0.7520675448437579  0.7520675255515092  1.0000
  Br  Br5       1.0  0.24793242084262138  0.7520675426372395  0.24793252974077654  1.0000
  Br  Br6       1.0  0.7520675681869002  0.24793247488020675  0.7520674924567655  1.0000
