data_image0
_chemical_formula_structural       Pd2ReCl6
_chemical_formula_sum              "Pd2 Re1 Cl6"
_cell_length_a       6.7286791040724525
_cell_length_b       6.728679468710734
_cell_length_c       6.728679323526341
_cell_angle_alpha    60.000001274471714
_cell_angle_beta     59.99999820893929
_cell_angle_gamma    60.000000718514165

_space_group_name_H-M_alt    "P 1"
_space_group_IT_number       1

loop_
  _space_group_symop_operation_xyz
  'x, y, z'

loop_
  _atom_site_type_symbol
  _atom_site_label
  _atom_site_symmetry_multiplicity
  _atom_site_fract_x
  _atom_site_fract_y
  _atom_site_fract_z
  _atom_site_occupancy
  Pd  Pd1       1.0  0.2500001486419827  0.24999985295719038  0.24999993920517385  1.0000
  Pd  Pd2       1.0  0.7499998854846667  0.7500000612429268  0.7500003831599332  1.0000
  Re  Re1       1.0  2.304957729164797e-09  2.912297609433532e-08  0.999999921866652  1.0000
  Cl  Cl1       1.0  0.24507045091499596  0.245070260393463  0.7549296063867724  1.0000
  Cl  Cl2       1.0  0.7549295744230219  0.7549296647277665  0.24507026460084408  1.0000
  Cl  Cl3       1.0  0.7549296539012235  0.2450705117477081  0.24507027030097434  1.0000
  Cl  Cl4       1.0  0.24507026793010242  0.7549296518178944  0.7549296431948083  1.0000
  Cl  Cl5       1.0  0.24507043755883645  0.754929663586617  0.24507028367866396  1.0000
  Cl  Cl6       1.0  0.7549295940189437  0.24507029429796262  0.7549297119664437  1.0000
