data_image0
_chemical_formula_structural       Pd2RuI6
_chemical_formula_sum              "Pd2 Ru1 I6"
_cell_length_a       7.472030397740076
_cell_length_b       7.472030407581805
_cell_length_c       7.472030465418159
_cell_angle_alpha    59.99999922535303
_cell_angle_beta     59.999999989985156
_cell_angle_gamma    60.000000293681055

_space_group_name_H-M_alt    "P 1"
_space_group_IT_number       1

loop_
  _space_group_symop_operation_xyz
  'x, y, z'

loop_
  _atom_site_type_symbol
  _atom_site_label
  _atom_site_symmetry_multiplicity
  _atom_site_fract_x
  _atom_site_fract_y
  _atom_site_fract_z
  _atom_site_occupancy
  Pd  Pd1       1.0  0.25000001345470724  0.24999996875457708  0.24999998802528012  1.0000
  Pd  Pd2       1.0  0.7500000100647893  0.749999955436906  0.750000025570107  1.0000
  Ru  Ru1       1.0  1.3439564081022245e-08  2.4586588128807964e-08  0.9999999515437891  1.0000
  I   I1        1.0  0.2519867219781433  0.2519867156548465  0.748013262624075  1.0000
  I   I2        1.0  0.7480132696805737  0.7480132855746114  0.2519867431042816  1.0000
  I   I3        1.0  0.748013287416282  0.25198673093517776  0.2519867380489538  1.0000
  I   I4        1.0  0.25198670486646224  0.7480132916026562  0.7480132741114172  1.0000
  I   I5        1.0  0.25198670726092504  0.748013303257125  0.2519867242143663  1.0000
  I   I6        1.0  0.7480132673827067  0.25198672583713205  0.7480132908107004  1.0000
