data_image0
_chemical_formula_structural       Pd2RuBr6
_chemical_formula_sum              "Pd2 Ru1 Br6"
_cell_length_a       7.0947972667228525
_cell_length_b       7.094797354886794
_cell_length_c       7.094797171433444
_cell_angle_alpha    60.00000173083456
_cell_angle_beta     60.00000127927583
_cell_angle_gamma    60.00000054978332

_space_group_name_H-M_alt    "P 1"
_space_group_IT_number       1

loop_
  _space_group_symop_operation_xyz
  'x, y, z'

loop_
  _atom_site_type_symbol
  _atom_site_label
  _atom_site_symmetry_multiplicity
  _atom_site_fract_x
  _atom_site_fract_y
  _atom_site_fract_z
  _atom_site_occupancy
  Pd  Pd1       1.0  0.24999993204007645  0.2500000047606294  0.24999995791347604  1.0000
  Pd  Pd2       1.0  0.7500001712959851  0.7499997139130482  0.7500000956819464  1.0000
  Ru  Ru1       1.0  0.9999999979945021  0.9999999913687115  8.13736023555981e-09  1.0000
  Br  Br1       1.0  0.2468555130376995  0.24685561424890098  0.7531444802207383  1.0000
  Br  Br2       1.0  0.7531444227386036  0.7531444703914095  0.24685556014974566  1.0000
  Br  Br3       1.0  0.753144474421858  0.24685565665555992  0.2468554734246977  1.0000
  Br  Br4       1.0  0.24685548604665583  0.7531444417948115  0.7531444772204725  1.0000
  Br  Br5       1.0  0.24685554821100422  0.753144457356362  0.24685554761052242  1.0000
  Br  Br6       1.0  0.7531444452848304  0.2468556445465245  0.7531444002990493  1.0000
