data_image0
_chemical_formula_structural       Pd2ReI6
_chemical_formula_sum              "Pd2 Re1 I6"
_cell_length_a       7.5747243440002014
_cell_length_b       7.574724225009742
_cell_length_c       7.574724315405473
_cell_angle_alpha    59.99999874317762
_cell_angle_beta     59.99999914579141
_cell_angle_gamma    59.999999269748486

_space_group_name_H-M_alt    "P 1"
_space_group_IT_number       1

loop_
  _space_group_symop_operation_xyz
  'x, y, z'

loop_
  _atom_site_type_symbol
  _atom_site_label
  _atom_site_symmetry_multiplicity
  _atom_site_fract_x
  _atom_site_fract_y
  _atom_site_fract_z
  _atom_site_occupancy
  Pd  Pd1       1.0  0.2500000277431278  0.24999994508008702  0.25000004869829506  1.0000
  Pd  Pd2       1.0  0.7500000261919619  0.7500000017792929  0.7499999778085942  1.0000
  Re  Re1       1.0  2.0002306750583533e-08  0.9999999902986975  0.9999999644853564  1.0000
  I   I1        1.0  0.25018554299163265  0.25018552958374757  0.7498144674385893  1.0000
  I   I2        1.0  0.7498144613141473  0.7498144884185195  0.2501855192675501  1.0000
  I   I3        1.0  0.7498144333505865  0.25018555867210546  0.2501855604544539  1.0000
  I   I4        1.0  0.250185516152944  0.7498144819665346  0.7498144621373249  1.0000
  I   I5        1.0  0.2501855353308606  0.7498144575136227  0.2501855512442034  1.0000
  I   I6        1.0  0.749814438225119  0.25018554755357403  0.7498144559841915  1.0000
