data_image0
_chemical_formula_structural       Pd2RhS6
_chemical_formula_sum              "Pd2 Rh1 S6"
_cell_length_a       6.040464910198864
_cell_length_b       6.040464950581351
_cell_length_c       6.040464905197228
_cell_angle_alpha    60.00000040337925
_cell_angle_beta     59.99999962409604
_cell_angle_gamma    59.999999908443165

_space_group_name_H-M_alt    "P 1"
_space_group_IT_number       1

loop_
  _space_group_symop_operation_xyz
  'x, y, z'

loop_
  _atom_site_type_symbol
  _atom_site_label
  _atom_site_symmetry_multiplicity
  _atom_site_fract_x
  _atom_site_fract_y
  _atom_site_fract_z
  _atom_site_occupancy
  Pd  Pd1       1.0  0.25000001488917295  0.25000015061056274  0.24999995111604217  1.0000
  Pd  Pd2       1.0  0.7499999792192278  0.749999873975034  0.7500001932111179  1.0000
  Rh  Rh1       1.0  0.9999999996720197  0.9999999837794624  3.145128293967371e-08  1.0000
  S   S1        1.0  0.26454906453770394  0.264549116820917  0.7354508731980077  1.0000
  S   S2        1.0  0.7354509736934481  0.7354508327446919  0.2645490034869771  1.0000
  S   S3        1.0  0.7354508762417582  0.2645491689718736  0.26454902466208813  1.0000
  S   S4        1.0  0.26454913868231744  0.7354508333104831  0.7354509366481639  1.0000
  S   S5        1.0  0.2645491171476978  0.7354508520419496  0.26454909280391925  1.0000
  S   S6        1.0  0.7354508464909225  0.26454916646094506  0.7354508976273038  1.0000
