data_image0
_chemical_formula_structural       Pd2RuCl6
_chemical_formula_sum              "Pd2 Ru1 Cl6"
_cell_length_a       6.731033829041465
_cell_length_b       6.731033889396596
_cell_length_c       6.731033953368799
_cell_angle_alpha    60.000000593257674
_cell_angle_beta     59.99999900426122
_cell_angle_gamma    59.99999994134575

_space_group_name_H-M_alt    "P 1"
_space_group_IT_number       1

loop_
  _space_group_symop_operation_xyz
  'x, y, z'

loop_
  _atom_site_type_symbol
  _atom_site_label
  _atom_site_symmetry_multiplicity
  _atom_site_fract_x
  _atom_site_fract_y
  _atom_site_fract_z
  _atom_site_occupancy
  Pd  Pd1       1.0  0.24999998737407142  0.25000004131461456  0.24999986976941896  1.0000
  Pd  Pd2       1.0  0.7499999047500385  0.7500000438836781  0.750000293085951  1.0000
  Ru  Ru1       1.0  4.44124099045149e-08  0.9999999799849564  0.9999999788873815  1.0000
  Cl  Cl1       1.0  0.24466278662011076  0.24466281756280442  0.7553372280880698  1.0000
  Cl  Cl2       1.0  0.7553372465397371  0.7553371584625211  0.2446626662744184  1.0000
  Cl  Cl3       1.0  0.7553372276338034  0.24466282534657854  0.2446627417023697  1.0000
  Cl  Cl4       1.0  0.24466279220053544  0.7553371597764948  0.7553372260854802  1.0000
  Cl  Cl5       1.0  0.24466286959736905  0.7553372320201984  0.24466275802735846  1.0000
  Cl  Cl6       1.0  0.7553371359065519  0.2446627549224245  0.7553372279011726  1.0000
