data_image0
_chemical_formula_structural       Pd2SeBr6
_chemical_formula_sum              "Pd2 Se1 Br6"
_cell_length_a       7.186150746906763
_cell_length_b       7.186150743846672
_cell_length_c       7.18615076186532
_cell_angle_alpha    59.99999984815222
_cell_angle_beta     59.99999917794456
_cell_angle_gamma    59.99999964718367

_space_group_name_H-M_alt    "P 1"
_space_group_IT_number       1

loop_
  _space_group_symop_operation_xyz
  'x, y, z'

loop_
  _atom_site_type_symbol
  _atom_site_label
  _atom_site_symmetry_multiplicity
  _atom_site_fract_x
  _atom_site_fract_y
  _atom_site_fract_z
  _atom_site_occupancy
  Pd  Pd1       1.0  0.25000003103018925  0.24999995868309063  0.24999999371935977  1.0000
  Pd  Pd2       1.0  0.7499999389283815  0.7500000396633015  0.7500001114140187  1.0000
  Se  Se1       1.0  1.1150419304882288e-08  5.112938434613313e-09  9.958673508415744e-09  1.0000
  Br  Br1       1.0  0.2530075602074754  0.2530075332484994  0.7469924486573687  1.0000
  Br  Br2       1.0  0.7469924338537193  0.7469924650978925  0.25300751779223085  1.0000
  Br  Br3       1.0  0.7469924475038064  0.25300757801100077  0.25300754272177345  1.0000
  Br  Br4       1.0  0.25300756488149734  0.7469924424914576  0.7469924062708695  1.0000
  Br  Br5       1.0  0.2530075906059979  0.7469924585144877  0.2530075265157742  1.0000
  Br  Br6       1.0  0.7469924192479217  0.2530075261974018  0.7469924374631487  1.0000
