data_image0
_chemical_formula_structural       Pd2SeBr6
_chemical_formula_sum              "Pd2 Se1 Br6"
_cell_length_a       7.18792299934269
_cell_length_b       7.187922734697077
_cell_length_c       7.187923142495608
_cell_angle_alpha    60.000000148059904
_cell_angle_beta     60.00000542710805
_cell_angle_gamma    60.00000609916529

_space_group_name_H-M_alt    "P 1"
_space_group_IT_number       1

loop_
  _space_group_symop_operation_xyz
  'x, y, z'

loop_
  _atom_site_type_symbol
  _atom_site_label
  _atom_site_symmetry_multiplicity
  _atom_site_fract_x
  _atom_site_fract_y
  _atom_site_fract_z
  _atom_site_occupancy
  Pd  Pd1       1.0  0.24999978868542372  0.2500001028319129  0.2500002363385993  1.0000
  Pd  Pd2       1.0  0.7500002787373289  0.7499997632501566  0.7500000926279137  1.0000
  Se  Se1       1.0  3.590976137162455e-08  0.9999999982961097  2.463373940253356e-08  1.0000
  Br  Br1       1.0  0.25286981295087374  0.25286980918634966  0.747130037137591  1.0000
  Br  Br2       1.0  0.7471302152488919  0.7471302323966583  0.2528697798899875  1.0000
  Br  Br3       1.0  0.7471301259073926  0.2528699844272628  0.25286980411427423  1.0000
  Br  Br4       1.0  0.2528698368986419  0.747130060563526  0.7471301357269579  1.0000
  Br  Br5       1.0  0.2528697744655565  0.7471302003042211  0.25286980664292863  1.0000
  Br  Br6       1.0  0.747130119360776  0.2528698395748855  0.7471300895530905  1.0000
