data_image0
_chemical_formula_structural       Pd2ScBr6
_chemical_formula_sum              "Pd2 Sc1 Br6"
_cell_length_a       7.207788291179612
_cell_length_b       7.207788163016623
_cell_length_c       7.207788239935707
_cell_angle_alpha    60.00000024561309
_cell_angle_beta     59.99999996776677
_cell_angle_gamma    60.00000050875815

_space_group_name_H-M_alt    "P 1"
_space_group_IT_number       1

loop_
  _space_group_symop_operation_xyz
  'x, y, z'

loop_
  _atom_site_type_symbol
  _atom_site_label
  _atom_site_symmetry_multiplicity
  _atom_site_fract_x
  _atom_site_fract_y
  _atom_site_fract_z
  _atom_site_occupancy
  Pd  Pd1       1.0  0.24999990750657297  0.24999998332900114  0.2500001245818688  1.0000
  Pd  Pd2       1.0  0.7500000609008501  0.7499999873693287  0.7500000401881218  1.0000
  Sc  Sc1       1.0  0.9999999745287257  4.757750284862572e-08  0.9999999958838267  1.0000
  Br  Br1       1.0  0.2553403991284174  0.25534038866170095  0.7446595790052537  1.0000
  Br  Br2       1.0  0.7446596002837443  0.744659580337431  0.25534036300374363  1.0000
  Br  Br3       1.0  0.7446596143228993  0.25534043473534124  0.25534036231993107  1.0000
  Br  Br4       1.0  0.25534038910121315  0.7446596039308492  0.7446595664351606  1.0000
  Br  Br5       1.0  0.2553404163852892  0.7446595933189905  0.2553403962986685  1.0000
  Br  Br6       1.0  0.7446596363626807  0.25534037907853546  0.7446595742261418  1.0000
