data_image0
_chemical_formula_structural       Pd2SeF6
_chemical_formula_sum              "Pd2 Se1 F6"
_cell_length_a       1.9322902750327682
_cell_length_b       3.592187657691504
_cell_length_c       3.9659569161697266
_cell_angle_alpha    42.4025962470442
_cell_angle_beta     54.584666498357976
_cell_angle_gamma    57.1519208059845

_space_group_name_H-M_alt    "P 1"
_space_group_IT_number       1

loop_
  _space_group_symop_operation_xyz
  'x, y, z'

loop_
  _atom_site_type_symbol
  _atom_site_label
  _atom_site_symmetry_multiplicity
  _atom_site_fract_x
  _atom_site_fract_y
  _atom_site_fract_z
  _atom_site_occupancy
  Pd  Pd1       1.0  0.7840013888423178  0.7276544296059446  0.24987726759883633  1.0000
  Pd  Pd2       1.0  0.4471282745462493  0.7152666532333772  0.8437102761368865  1.0000
  Se  Se1       1.0  0.84374082590209  0.9625076626395059  0.6506733305918779  1.0000
  F   F1        1.0  0.039312782653421495  0.22436540529189825  0.7106771610890092  1.0000
  F   F2        1.0  0.0052538612668488575  0.20298640681926794  0.7352199858402714  1.0000
  F   F3        1.0  0.4381114196708942  0.08569034450489565  0.7319731580080964  1.0000
  F   F4        1.0  0.09179114903512028  0.20920531175760693  0.6926429999960637  1.0000
  F   F5        1.0  0.9115394162025755  0.17656615263956232  0.7578373712560431  1.0000
  F   F6        1.0  0.061878460346106445  0.057653272859890706  0.9136833483132829  1.0000
