data_image0
_chemical_formula_structural       Pd2ScCl6
_chemical_formula_sum              "Pd2 Sc1 Cl6"
_cell_length_a       6.776724021537594
_cell_length_b       6.776723938702987
_cell_length_c       6.776724299901497
_cell_angle_alpha    59.99999947999555
_cell_angle_beta     59.99999934050265
_cell_angle_gamma    60.00000027165655

_space_group_name_H-M_alt    "P 1"
_space_group_IT_number       1

loop_
  _space_group_symop_operation_xyz
  'x, y, z'

loop_
  _atom_site_type_symbol
  _atom_site_label
  _atom_site_symmetry_multiplicity
  _atom_site_fract_x
  _atom_site_fract_y
  _atom_site_fract_z
  _atom_site_occupancy
  Pd  Pd1       1.0  0.24999993695071446  0.25000021834793845  0.2499999761996767  1.0000
  Pd  Pd2       1.0  0.7500000766583226  0.7499999700840758  0.7500001057117428  1.0000
  Sc  Sc1       1.0  0.9999999685557336  0.9999999512033952  2.0937125414965733e-08  1.0000
  Cl  Cl1       1.0  0.2554984745384758  0.25549837609179615  0.7445016714153867  1.0000
  Cl  Cl2       1.0  0.7445015774901155  0.7445015846227295  0.2554983192144593  1.0000
  Cl  Cl3       1.0  0.7445015848544512  0.2554984339952509  0.25549843736979566  1.0000
  Cl  Cl4       1.0  0.2554983042178414  0.7445014941882029  0.7445015875512491  1.0000
  Cl  Cl5       1.0  0.2554984456467022  0.744501524734718  0.25549846213813227  1.0000
  Cl  Cl6       1.0  0.7445016249183044  0.25549844682349687  0.744501441495341  1.0000
