data_image0
_chemical_formula_structural       Pd2SiBr6
_chemical_formula_sum              "Pd2 Si1 Br6"
_cell_length_a       6.977975022517202
_cell_length_b       6.977974658866457
_cell_length_c       6.977974737908061
_cell_angle_alpha    59.999998149430866
_cell_angle_beta     60.00000018112163
_cell_angle_gamma    60.00000124335312

_space_group_name_H-M_alt    "P 1"
_space_group_IT_number       1

loop_
  _space_group_symop_operation_xyz
  'x, y, z'

loop_
  _atom_site_type_symbol
  _atom_site_label
  _atom_site_symmetry_multiplicity
  _atom_site_fract_x
  _atom_site_fract_y
  _atom_site_fract_z
  _atom_site_occupancy
  Pd  Pd1       1.0  0.2499998593966592  0.2500001674429046  0.2499999931993287  1.0000
  Pd  Pd2       1.0  0.7500000374415371  0.7499999933328722  0.7500001090850099  1.0000
  Si  Si1       1.0  6.234820584602402e-09  0.9999999912242091  3.85305799497241e-08  1.0000
  Br  Br1       1.0  0.24226082610197683  0.24226079829222108  0.7577391617656973  1.0000
  Br  Br2       1.0  0.7577391956333966  0.7577391764368008  0.2422607876591185  1.0000
  Br  Br3       1.0  0.7577391747359311  0.24226085761340002  0.24226081866751797  1.0000
  Br  Br4       1.0  0.24226087096937882  0.757739074991828  0.7577391183380183  1.0000
  Br  Br5       1.0  0.242260876758773  0.7577391006476282  0.24226083634150916  1.0000
  Br  Br6       1.0  0.7577391383747073  0.24226084424370561  0.7577391313030977  1.0000
