data_image0
_chemical_formula_structural       Pd2SF6
_chemical_formula_sum              "Pd2 S1 F6"
_cell_length_a       5.297686657866843
_cell_length_b       5.297686720289064
_cell_length_c       5.297686494310514
_cell_angle_alpha    60.000000892584715
_cell_angle_beta     60.00000242299808
_cell_angle_gamma    59.999999712692386

_space_group_name_H-M_alt    "P 1"
_space_group_IT_number       1

loop_
  _space_group_symop_operation_xyz
  'x, y, z'

loop_
  _atom_site_type_symbol
  _atom_site_label
  _atom_site_symmetry_multiplicity
  _atom_site_fract_x
  _atom_site_fract_y
  _atom_site_fract_z
  _atom_site_occupancy
  Pd  Pd1       1.0  0.24999994112301124  0.25000000051420546  0.2500000408252507  1.0000
  Pd  Pd2       1.0  0.7500000348801432  0.7500000732099142  0.7499999657856191  1.0000
  S   S1        1.0  4.1700119405733385e-08  0.9999999468274857  3.84858165792464e-09  1.0000
  F   F1        1.0  0.248727455718446  0.2487274911563464  0.7512724953197697  1.0000
  F   F2        1.0  0.7512725555781486  0.7512725224597145  0.24872745763183526  1.0000
  F   F3        1.0  0.7512725926626485  0.24872738696444058  0.2487274049198054  1.0000
  F   F4        1.0  0.24872738888972085  0.7512726243397719  0.7512725999245481  1.0000
  F   F5        1.0  0.2487274249665972  0.7512725536643258  0.24872740945073793  1.0000
  F   F6        1.0  0.7512725763573586  0.24872741140291826  0.7512726029634575  1.0000
