data_image0
_chemical_formula_structural       Pd2ScI6
_chemical_formula_sum              "Pd2 Sc1 I6"
_cell_length_a       7.7761829320226195
_cell_length_b       7.77618296151604
_cell_length_c       7.776183058699998
_cell_angle_alpha    59.99999940570421
_cell_angle_beta     60.00000036706543
_cell_angle_gamma    60.00000055990147

_space_group_name_H-M_alt    "P 1"
_space_group_IT_number       1

loop_
  _space_group_symop_operation_xyz
  'x, y, z'

loop_
  _atom_site_type_symbol
  _atom_site_label
  _atom_site_symmetry_multiplicity
  _atom_site_fract_x
  _atom_site_fract_y
  _atom_site_fract_z
  _atom_site_occupancy
  Pd  Pd1       1.0  0.24999998498259163  0.2499999026505282  0.2500000782126079  1.0000
  Pd  Pd2       1.0  0.749999993715075  0.7500000371255265  0.7499999387871203  1.0000
  Sc  Sc1       1.0  0.9999999957253926  0.9999999905500303  8.148266493277872e-09  1.0000
  I   I1        1.0  0.25774221975487116  0.25774223801960455  0.7422578009838116  1.0000
  I   I2        1.0  0.7422578285074967  0.7422577915311614  0.25774221864880015  1.0000
  I   I3        1.0  0.7422577591991498  0.2577421882476912  0.25774223762879245  1.0000
  I   I4        1.0  0.2577422241771384  0.7422578176781507  0.7422577542445553  1.0000
  I   I5        1.0  0.25774219317596775  0.7422578439552254  0.2577421630874  1.0000
  I   I6        1.0  0.7422578021542973  0.25774218402054566  0.7422578079260609  1.0000
