data_image0
_chemical_formula_structural       Pd2SO6
_chemical_formula_sum              "Pd2 S1 O6"
_cell_length_a       5.092521257559633
_cell_length_b       5.092521364927857
_cell_length_c       5.092521386043254
_cell_angle_alpha    59.999998104890686
_cell_angle_beta     59.99999732977008
_cell_angle_gamma    59.999998484221244

_space_group_name_H-M_alt    "P 1"
_space_group_IT_number       1

loop_
  _space_group_symop_operation_xyz
  'x, y, z'

loop_
  _atom_site_type_symbol
  _atom_site_label
  _atom_site_symmetry_multiplicity
  _atom_site_fract_x
  _atom_site_fract_y
  _atom_site_fract_z
  _atom_site_occupancy
  Pd  Pd1       1.0  0.24999969084682677  0.24999999150725882  0.2500000375474918  1.0000
  Pd  Pd2       1.0  0.7499999027431452  0.7500001164160197  0.7499995971390505  1.0000
  S   S1        1.0  2.7209325235239363e-08  0.9999999999999996  6.031975408493077e-09  1.0000
  O   O1        1.0  0.225864219591085  0.2258640790857948  0.7741360593437595  1.0000
  O   O2        1.0  0.7741359121179686  0.7741359109930951  0.22586420172621807  1.0000
  O   O3        1.0  0.7741360392616767  0.22586404604454136  0.22586425713333647  1.0000
  O   O4        1.0  0.22586423360266614  0.7741358742897191  0.7741358543388084  1.0000
  O   O5        1.0  0.22586407300909905  0.7741357130638414  0.22586427943372048  1.0000
  O   O6        1.0  0.7741359852497476  0.22586420486543443  0.7741358246875023  1.0000
