data_image0
_chemical_formula_structural       Pd2SeF6
_chemical_formula_sum              "Pd2 Se1 F6"
_cell_length_a       5.621297413705836
_cell_length_b       5.621297587271662
_cell_length_c       5.62129730091681
_cell_angle_alpha    60.00000162331179
_cell_angle_beta     60.0000024629662
_cell_angle_gamma    60.00000059217951

_space_group_name_H-M_alt    "P 1"
_space_group_IT_number       1

loop_
  _space_group_symop_operation_xyz
  'x, y, z'

loop_
  _atom_site_type_symbol
  _atom_site_label
  _atom_site_symmetry_multiplicity
  _atom_site_fract_x
  _atom_site_fract_y
  _atom_site_fract_z
  _atom_site_occupancy
  Pd  Pd1       1.0  0.25000001666112515  0.2500001363504646  0.24999992669531523  1.0000
  Pd  Pd2       1.0  0.7499999603519458  0.7500001541366778  0.7500000982328177  1.0000
  Se  Se1       1.0  0.9999999944605679  0.9999999673186261  4.045778839171541e-08  1.0000
  F   F1        1.0  0.24299992411321794  0.24300003296941622  0.756999962223122  1.0000
  F   F2        1.0  0.7570000957524313  0.7569999132739228  0.2429999768004358  1.0000
  F   F3        1.0  0.7569999452816003  0.2430000587529503  0.24299996821084865  1.0000
  F   F4        1.0  0.24299999835255526  0.7569998635240487  0.7570000351432152  1.0000
  F   F5        1.0  0.2430000469239181  0.7569999240265071  0.242999982860454  1.0000
  F   F6        1.0  0.7570000047508696  0.24299996992663314  0.7569999966457641  1.0000
