data_image0
_chemical_formula_structural       Pd2SeI6
_chemical_formula_sum              "Pd2 Se1 I6"
_cell_length_a       7.654915478104302
_cell_length_b       7.654915593723558
_cell_length_c       7.654915588509353
_cell_angle_alpha    59.999999704117144
_cell_angle_beta     59.999998151553356
_cell_angle_gamma    60.00000084068109

_space_group_name_H-M_alt    "P 1"
_space_group_IT_number       1

loop_
  _space_group_symop_operation_xyz
  'x, y, z'

loop_
  _atom_site_type_symbol
  _atom_site_label
  _atom_site_symmetry_multiplicity
  _atom_site_fract_x
  _atom_site_fract_y
  _atom_site_fract_z
  _atom_site_occupancy
  Pd  Pd1       1.0  0.24999997901541235  0.25000001176566095  0.2499999969420132  1.0000
  Pd  Pd2       1.0  0.749999938052762  0.7499999824987774  0.7500000585250842  1.0000
  Se  Se1       1.0  0.9999999986745609  0.9999999904003264  3.9427659890092656e-08  1.0000
  I   I1        1.0  0.2660107597562266  0.26601074053161883  0.7339892375093037  1.0000
  I   I2        1.0  0.7339892523438729  0.7339892537328206  0.2660107155751239  1.0000
  I   I3        1.0  0.7339892358949199  0.2660107745165547  0.2660107507679397  1.0000
  I   I4        1.0  0.2660108061910396  0.7339892293475588  0.733989217795174  1.0000
  I   I5        1.0  0.2660108061687185  0.7339892126122851  0.2660107790468244  1.0000
  I   I6        1.0  0.7339892316507193  0.2660108040513934  0.7339892048450198  1.0000
