data_image0
_chemical_formula_structural       Pd2SiO6
_chemical_formula_sum              "Pd2 Si1 O6"
_cell_length_a       5.277452179290594
_cell_length_b       5.277451392799144
_cell_length_c       5.277453165660942
_cell_angle_alpha    60.00000362021616
_cell_angle_beta     60.0000239373469
_cell_angle_gamma    59.999991135699254

_space_group_name_H-M_alt    "P 1"
_space_group_IT_number       1

loop_
  _space_group_symop_operation_xyz
  'x, y, z'

loop_
  _atom_site_type_symbol
  _atom_site_label
  _atom_site_symmetry_multiplicity
  _atom_site_fract_x
  _atom_site_fract_y
  _atom_site_fract_z
  _atom_site_occupancy
  Pd  Pd1       1.0  0.24998499305733912  0.24998854939081538  0.2500124167129311  1.0000
  Pd  Pd2       1.0  0.7499889382242095  0.7499827100491343  0.7500184512546761  1.0000
  Si  Si1       1.0  8.902484912189961e-07  1.1232248703573938e-06  0.9999983149061348  1.0000
  O   O1        1.0  0.23549724733127403  0.2354939716551514  0.764506159470613  1.0000
  O   O2        1.0  0.7645060573402865  0.7645090977918708  0.2354905829071153  1.0000
  O   O3        1.0  0.7645123508241283  0.23550246642175532  0.23548539348488548  1.0000
  O   O4        1.0  0.23549705977874902  0.7645103593012219  0.7645013467169324  1.0000
  O   O5        1.0  0.23549836291427356  0.764509755621963  0.23548914555927725  1.0000
  O   O6        1.0  0.7645125163303227  0.23550220215427517  0.7644987552272489  1.0000
