data_image0
_chemical_formula_structural       Pd2SeCl6
_chemical_formula_sum              "Pd2 Se1 Cl6"
_cell_length_a       6.68232824453231
_cell_length_b       6.6823286921079585
_cell_length_c       6.682327819253055
_cell_angle_alpha    60.000003113683945
_cell_angle_beta     60.00000152722806
_cell_angle_gamma    60.00000275919587

_space_group_name_H-M_alt    "P 1"
_space_group_IT_number       1

loop_
  _space_group_symop_operation_xyz
  'x, y, z'

loop_
  _atom_site_type_symbol
  _atom_site_label
  _atom_site_symmetry_multiplicity
  _atom_site_fract_x
  _atom_site_fract_y
  _atom_site_fract_z
  _atom_site_occupancy
  Pd  Pd1       1.0  0.24999997422588532  0.24999977962210373  0.24999994616663127  1.0000
  Pd  Pd2       1.0  0.7500000445470433  0.750000227779835  0.7499997910326862  1.0000
  Se  Se1       1.0  0.9999999278076781  4.032185139357097e-08  0.9999999770266382  1.0000
  Cl  Cl1       1.0  0.2512026892458572  0.2512026076697214  0.7487974081240796  1.0000
  Cl  Cl2       1.0  0.7487973530211754  0.7487973759056655  0.25120265996453633  1.0000
  Cl  Cl3       1.0  0.7487974406253892  0.2512026224582999  0.2512025521390704  1.0000
  Cl  Cl4       1.0  0.2512025290809112  0.7487975114076221  0.7487974666092515  1.0000
  Cl  Cl5       1.0  0.251202578440485  0.7487973668400437  0.25120262812883115  1.0000
  Cl  Cl6       1.0  0.7487974726612412  0.2512024554479389  0.7487975910103665  1.0000
