data_image0
_chemical_formula_structural       Pd2SI6
_chemical_formula_sum              "Pd2 S1 I6"
_cell_length_a       7.5200108048132215
_cell_length_b       7.520010844914821
_cell_length_c       7.520010736722059
_cell_angle_alpha    59.99999937251002
_cell_angle_beta     59.999999506911834
_cell_angle_gamma    60.00000004458082

_space_group_name_H-M_alt    "P 1"
_space_group_IT_number       1

loop_
  _space_group_symop_operation_xyz
  'x, y, z'

loop_
  _atom_site_type_symbol
  _atom_site_label
  _atom_site_symmetry_multiplicity
  _atom_site_fract_x
  _atom_site_fract_y
  _atom_site_fract_z
  _atom_site_occupancy
  Pd  Pd1       1.0  0.24999998708649504  0.2500000061839224  0.2499999893621417  1.0000
  Pd  Pd2       1.0  0.7499999837491597  0.750000020180414  0.7500000504420232  1.0000
  S   S1        1.0  0.9999999692127601  0.9999999771989311  5.604943218423949e-08  1.0000
  I   I1        1.0  0.2685905930519383  0.26859057587285573  0.7314093961673707  1.0000
  I   I2        1.0  0.7314093978543914  0.7314094179185265  0.2685905647816725  1.0000
  I   I3        1.0  0.7314094238213453  0.2685906141243978  0.26859057651461143  1.0000
  I   I4        1.0  0.2685906076281296  0.7314094008394051  0.7314093894808523  1.0000
  I   I5        1.0  0.268590610663272  0.7314094166429824  0.2685905820770241  1.0000
  I   I6        1.0  0.7314094315507106  0.2685905706338086  0.7314093950392627  1.0000
