data_image0
_chemical_formula_structural       Pd2SCl6
_chemical_formula_sum              "Pd2 S1 Cl6"
_cell_length_a       6.649383928741213
_cell_length_b       6.6493839314871535
_cell_length_c       6.649383905820868
_cell_angle_alpha    60.0000025646323
_cell_angle_beta     60.00000073521191
_cell_angle_gamma    60.000001311592364

_space_group_name_H-M_alt    "P 1"
_space_group_IT_number       1

loop_
  _space_group_symop_operation_xyz
  'x, y, z'

loop_
  _atom_site_type_symbol
  _atom_site_label
  _atom_site_symmetry_multiplicity
  _atom_site_fract_x
  _atom_site_fract_y
  _atom_site_fract_z
  _atom_site_occupancy
  Pd  Pd1       1.0  0.24999996296353005  0.24999977860203018  0.25000022629529645  1.0000
  Pd  Pd2       1.0  0.7499999432710674  0.7500001572900079  0.7500001552314798  1.0000
  S   S1        1.0  2.8137007477430086e-08  0.9999999207986364  6.162574619295936e-08  1.0000
  Cl  Cl1       1.0  0.24559689730043135  0.24559693398228655  0.754403009452804  1.0000
  Cl  Cl2       1.0  0.7544031010767974  0.754402996384064  0.24559690015436314  1.0000
  Cl  Cl3       1.0  0.7544031231272932  0.245597004333513  0.24559677709664526  1.0000
  Cl  Cl4       1.0  0.24559691427563723  0.7544030954869196  0.7544030327823296  1.0000
  Cl  Cl5       1.0  0.24559695570398235  0.7544031231466861  0.24559683695793288  1.0000
  Cl  Cl6       1.0  0.7544030750506828  0.2455969914088846  0.7544029809087958  1.0000
