data_image0
_chemical_formula_structural       Pd2SnCl6
_chemical_formula_sum              "Pd2 Sn1 Cl6"
_cell_length_a       6.814274993898933
_cell_length_b       6.814275119795651
_cell_length_c       6.8142753007448285
_cell_angle_alpha    59.99999932310174
_cell_angle_beta     59.999998104988556
_cell_angle_gamma    60.00000100544692

_space_group_name_H-M_alt    "P 1"
_space_group_IT_number       1

loop_
  _space_group_symop_operation_xyz
  'x, y, z'

loop_
  _atom_site_type_symbol
  _atom_site_label
  _atom_site_symmetry_multiplicity
  _atom_site_fract_x
  _atom_site_fract_y
  _atom_site_fract_z
  _atom_site_occupancy
  Pd  Pd1       1.0  0.2500000458706193  0.24999996131977026  0.24999990057688426  1.0000
  Pd  Pd2       1.0  0.7499999494306526  0.7500000367317051  0.7499999718463463  1.0000
  Sn  Sn1       1.0  0.9999999992981019  7.189289418452606e-09  4.8119066298068105e-08  1.0000
  Cl  Cl1       1.0  0.2533411446716676  0.25334112613878645  0.7466588714325748  1.0000
  Cl  Cl2       1.0  0.7466589032452441  0.7466588970752025  0.2533411176573722  1.0000
  Cl  Cl3       1.0  0.7466589049677187  0.2533410914319187  0.253341193706262  1.0000
  Cl  Cl4       1.0  0.2533411152904826  0.7466588419159546  0.7466588717561877  1.0000
  Cl  Cl5       1.0  0.2533411108293419  0.7466588867636056  0.25334117629487246  1.0000
  Cl  Cl6       1.0  0.7466588255392081  0.25334115082896  0.746658845237385  1.0000
