data_image0
_chemical_formula_structural       Pd2SiF6
_chemical_formula_sum              "Pd2 Si1 F6"
_cell_length_a       5.358348340828751
_cell_length_b       5.358347976174724
_cell_length_c       5.358348007353573
_cell_angle_alpha    60.00000022177109
_cell_angle_beta     59.99999965323655
_cell_angle_gamma    59.99999943697473

_space_group_name_H-M_alt    "P 1"
_space_group_IT_number       1

loop_
  _space_group_symop_operation_xyz
  'x, y, z'

loop_
  _atom_site_type_symbol
  _atom_site_label
  _atom_site_symmetry_multiplicity
  _atom_site_fract_x
  _atom_site_fract_y
  _atom_site_fract_z
  _atom_site_occupancy
  Pd  Pd1       1.0  0.24999980204380617  0.24999998398955875  0.2500001099999739  1.0000
  Pd  Pd2       1.0  0.7500000322861773  0.750000038824375  0.7499997831375047  1.0000
  Si  Si1       1.0  0.9999999738790866  1.3714057430856508e-08  8.069675343883493e-09  1.0000
  F   F1        1.0  0.22786687140955045  0.22786684812255134  0.7721331578274705  1.0000
  F   F2        1.0  0.7721331827483751  0.7721331358348911  0.2278669228950568  1.0000
  F   F3        1.0  0.7721331717936456  0.22786683151470485  0.22786691801131004  1.0000
  F   F4        1.0  0.227866891114827  0.7721331455857078  0.7721330740508576  1.0000
  F   F5        1.0  0.22786680360951614  0.7721331632250267  0.22786694971280744  1.0000
  F   F6        1.0  0.7721331988070353  0.22786685958891156  0.7721331113247046  1.0000
