data_image0
_chemical_formula_structural       Pd2SBr6
_chemical_formula_sum              "Pd2 S1 Br6"
_cell_length_a       6.982274119958991
_cell_length_b       6.982274319647039
_cell_length_c       6.98227439126015
_cell_angle_alpha    59.99999699691214
_cell_angle_beta     59.99999796551112
_cell_angle_gamma    59.99999702234209

_space_group_name_H-M_alt    "P 1"
_space_group_IT_number       1

loop_
  _space_group_symop_operation_xyz
  'x, y, z'

loop_
  _atom_site_type_symbol
  _atom_site_label
  _atom_site_symmetry_multiplicity
  _atom_site_fract_x
  _atom_site_fract_y
  _atom_site_fract_z
  _atom_site_occupancy
  Pd  Pd1       1.0  0.25000017240677297  0.24999998020508532  0.24999994937992756  1.0000
  Pd  Pd2       1.0  0.7499998078861067  0.7500002230217382  0.7499993856061509  1.0000
  S   S1        1.0  0.9999999342164453  3.858970241190283e-08  1.9325718061589066e-08  1.0000
  Br  Br1       1.0  0.251625354062016  0.25162518404371226  0.7483747385983579  1.0000
  Br  Br2       1.0  0.7483746756804094  0.7483747964152655  0.2516255380691304  1.0000
  Br  Br3       1.0  0.7483748304241477  0.2516251712497565  0.25162537092082915  1.0000
  Br  Br4       1.0  0.2516253313038687  0.7483746811615761  0.7483748092526146  1.0000
  Br  Br5       1.0  0.2516251558428959  0.748374633363283  0.2516253883314352  1.0000
  Br  Br6       1.0  0.7483747404637678  0.2516252909652275  0.7483747997978146  1.0000
