data_image0
_chemical_formula_structural       Pd2SeO6
_chemical_formula_sum              "Pd2 Se1 O6"
_cell_length_a       5.206867423081035
_cell_length_b       5.2068675386725065
_cell_length_c       5.20686757127669
_cell_angle_alpha    59.999998072295305
_cell_angle_beta     59.999999222602014
_cell_angle_gamma    59.99999842554897

_space_group_name_H-M_alt    "P 1"
_space_group_IT_number       1

loop_
  _space_group_symop_operation_xyz
  'x, y, z'

loop_
  _atom_site_type_symbol
  _atom_site_label
  _atom_site_symmetry_multiplicity
  _atom_site_fract_x
  _atom_site_fract_y
  _atom_site_fract_z
  _atom_site_occupancy
  Pd  Pd1       1.0  0.2500002633834879  0.24999987627014206  0.2500000625079526  1.0000
  Pd  Pd2       1.0  0.7500003116604647  0.7500005320445801  0.7499983868647822  1.0000
  Se  Se1       1.0  2.0728655532572773e-07  4.49264893166245e-07  0.9999992453642812  1.0000
  O   O1        1.0  0.2535669074693568  0.2535666271514009  0.7464334234363214  1.0000
  O   O2        1.0  0.7464328854942139  0.7464331601898369  0.2535675193276316  1.0000
  O   O3        1.0  0.7464330126921122  0.2535665403412802  0.2535673392089253  1.0000
  O   O4        1.0  0.2535667352036555  0.7464331293913565  0.7464333123083758  1.0000
  O   O5        1.0  0.2535665522177062  0.7464329440799384  0.25356733366914147  1.0000
  O   O6        1.0  0.7464330897228297  0.25356677740048605  0.746433400647555  1.0000
