data_image0
_chemical_formula_structural       Pd2TiBr6
_chemical_formula_sum              "Pd2 Ti1 Br6"
_cell_length_a       7.113124205865416
_cell_length_b       7.113124242827393
_cell_length_c       7.1131242288632635
_cell_angle_alpha    59.99999990846562
_cell_angle_beta     59.999999393266876
_cell_angle_gamma    60.00000003453732

_space_group_name_H-M_alt    "P 1"
_space_group_IT_number       1

loop_
  _space_group_symop_operation_xyz
  'x, y, z'

loop_
  _atom_site_type_symbol
  _atom_site_label
  _atom_site_symmetry_multiplicity
  _atom_site_fract_x
  _atom_site_fract_y
  _atom_site_fract_z
  _atom_site_occupancy
  Pd  Pd1       1.0  0.24999983648552174  0.2500000283821546  0.2500000628915232  1.0000
  Pd  Pd2       1.0  0.7499999906877332  0.7499999904469125  0.7499999124634912  1.0000
  Ti  Ti1       1.0  0.9999999811923519  0.9999999931127598  0.9999999523958077  1.0000
  Br  Br1       1.0  0.24698011799780473  0.2469801285969186  0.753019884072623  1.0000
  Br  Br2       1.0  0.7530199349348109  0.7530198557959481  0.24698012214749138  1.0000
  Br  Br3       1.0  0.753019967721745  0.24698007401770602  0.2469801016101899  1.0000
  Br  Br4       1.0  0.24698015130916223  0.75301987766077  0.75301994134035  1.0000
  Br  Br5       1.0  0.24698006511664855  0.753019963693224  0.24698013469325453  1.0000
  Br  Br6       1.0  0.7530199583651475  0.24698008957204404  0.7530198869623691  1.0000
