data_image0
_chemical_formula_structural       Pd2TiCl6
_chemical_formula_sum              "Pd2 Ti1 Cl6"
_cell_length_a       6.7333495907959895
_cell_length_b       6.733350315665463
_cell_length_c       6.73335032724546
_cell_angle_alpha    60.00000187881312
_cell_angle_beta     59.99999801721385
_cell_angle_gamma    60.00000109334951

_space_group_name_H-M_alt    "P 1"
_space_group_IT_number       1

loop_
  _space_group_symop_operation_xyz
  'x, y, z'

loop_
  _atom_site_type_symbol
  _atom_site_label
  _atom_site_symmetry_multiplicity
  _atom_site_fract_x
  _atom_site_fract_y
  _atom_site_fract_z
  _atom_site_occupancy
  Pd  Pd1       1.0  0.2500001520790629  0.24999986193216456  0.25000020860865313  1.0000
  Pd  Pd2       1.0  0.7499997971841197  0.7500003333740036  0.7499999993869932  1.0000
  Ti  Ti1       1.0  9.87328459200985e-09  2.1827082550364555e-08  1.1929799062813311e-07  1.0000
  Cl  Cl1       1.0  0.24603346007632398  0.2460331326618688  0.7539666141454137  1.0000
  Cl  Cl2       1.0  0.7539667983263456  0.7539666188269841  0.24603328544751815  1.0000
  Cl  Cl3       1.0  0.7539666039317667  0.24603322851130796  0.24603337075142107  1.0000
  Cl  Cl4       1.0  0.24603348912733383  0.7539667103266526  0.7539663381362256  1.0000
  Cl  Cl5       1.0  0.24603329045765174  0.7539666895869388  0.24603345255904252  1.0000
  Cl  Cl6       1.0  0.7539664064748761  0.246033398402748  0.7539665773402784  1.0000
