data_image0
_chemical_formula_structural       Pd2TiCl6
_chemical_formula_sum              "Pd2 Ti1 Cl6"
_cell_length_a       6.732914334586248
_cell_length_b       6.732914460234794
_cell_length_c       6.732914611155592
_cell_angle_alpha    60.0000017307502
_cell_angle_beta     60.00000053133316
_cell_angle_gamma    60.00000254751935

_space_group_name_H-M_alt    "P 1"
_space_group_IT_number       1

loop_
  _space_group_symop_operation_xyz
  'x, y, z'

loop_
  _atom_site_type_symbol
  _atom_site_label
  _atom_site_symmetry_multiplicity
  _atom_site_fract_x
  _atom_site_fract_y
  _atom_site_fract_z
  _atom_site_occupancy
  Pd  Pd1       1.0  0.25000004723826674  0.250000024080888  0.24999990343311496  1.0000
  Pd  Pd2       1.0  0.7499999741167023  0.7499997775579988  0.7500000335256529  1.0000
  Ti  Ti1       1.0  1.19484538681783e-09  2.728561664883007e-08  0.9999999634811564  1.0000
  Cl  Cl1       1.0  0.2459880711550459  0.2459881574208552  0.7540119203846938  1.0000
  Cl  Cl2       1.0  0.754011948532347  0.7540119116170836  0.24598809461254553  1.0000
  Cl  Cl3       1.0  0.7540118469477396  0.2459881449638402  0.24598807957136193  1.0000
  Cl  Cl4       1.0  0.24598807630089528  0.7540119149788906  0.7540119451208736  1.0000
  Cl  Cl5       1.0  0.24598812240810067  0.7540119225599616  0.24598810577617433  1.0000
  Cl  Cl6       1.0  0.7540119152616375  0.24598810282098987  0.7540119146321811  1.0000
