data_image0
_chemical_formula_structural       Pd2TiF6
_chemical_formula_sum              "Pd2 Ti1 F6"
_cell_length_a       5.498308762266156
_cell_length_b       5.498309437472711
_cell_length_c       5.498308891940526
_cell_angle_alpha    60.000001245959936
_cell_angle_beta     60.000001828803185
_cell_angle_gamma    60.00000177254792

_space_group_name_H-M_alt    "P 1"
_space_group_IT_number       1

loop_
  _space_group_symop_operation_xyz
  'x, y, z'

loop_
  _atom_site_type_symbol
  _atom_site_label
  _atom_site_symmetry_multiplicity
  _atom_site_fract_x
  _atom_site_fract_y
  _atom_site_fract_z
  _atom_site_occupancy
  Pd  Pd1       1.0  0.25000004227193007  0.25000002257681625  0.2499999857594703  1.0000
  Pd  Pd2       1.0  0.7499998410746125  0.7500000744129443  0.749999758521914  1.0000
  Ti  Ti1       1.0  2.2868186077738784e-08  0.9999999754975707  2.0823273800660003e-08  1.0000
  F   F1        1.0  0.24288037547575203  0.24288039797901187  0.7571196321585444  1.0000
  F   F2        1.0  0.7571195762205751  0.7571196388684122  0.2428804572173966  1.0000
  F   F3        1.0  0.7571195780230033  0.24288030597804858  0.2428804784716585  1.0000
  F   F4        1.0  0.24288044314777027  0.7571196484521151  0.7571196319256202  1.0000
  F   F5        1.0  0.24288047504331162  0.7571195941118477  0.24288035329206187  1.0000
  F   F6        1.0  0.7571196148156967  0.2428803558633297  0.7571196740638452  1.0000
