data_image0
_chemical_formula_structural       Pd2TiF6
_chemical_formula_sum              "Pd2 Ti1 F6"
_cell_length_a       5.498244075960165
_cell_length_b       5.49824415970592
_cell_length_c       5.498244238589339
_cell_angle_alpha    60.00000012366102
_cell_angle_beta     59.99999927689958
_cell_angle_gamma    60.00000082376301

_space_group_name_H-M_alt    "P 1"
_space_group_IT_number       1

loop_
  _space_group_symop_operation_xyz
  'x, y, z'

loop_
  _atom_site_type_symbol
  _atom_site_label
  _atom_site_symmetry_multiplicity
  _atom_site_fract_x
  _atom_site_fract_y
  _atom_site_fract_z
  _atom_site_occupancy
  Pd  Pd1       1.0  0.24999998610956867  0.25000001432220426  0.2499999542373466  1.0000
  Pd  Pd2       1.0  0.7500000639938332  0.7499999716859752  0.7499999528267778  1.0000
  Ti  Ti1       1.0  0.9999999714681362  0.99999999108992  2.4177259040536193e-08  1.0000
  F   F1        1.0  0.24292401208299655  0.24292404607702256  0.7570759636498695  1.0000
  F   F2        1.0  0.7570760074720962  0.757076000074196  0.24292399591109987  1.0000
  F   F3        1.0  0.7570759963307389  0.24292401707135478  0.24292407539098065  1.0000
  F   F4        1.0  0.24292397691604425  0.7570759978945844  0.7570759683858436  1.0000
  F   F5        1.0  0.2429240147745288  0.7570759748560322  0.2429240431401404  1.0000
  F   F6        1.0  0.757075954060928  0.24292397773934776  0.7570760212962894  1.0000
