data_image0
_chemical_formula_structural       Pd2TiO6
_chemical_formula_sum              "Pd2 Ti1 O6"
_cell_length_a       4.67238832579347
_cell_length_b       4.6723882696286845
_cell_length_c       4.672388403725314
_cell_angle_alpha    59.999995494813
_cell_angle_beta     59.999996394392205
_cell_angle_gamma    59.99999501768615

_space_group_name_H-M_alt    "P 1"
_space_group_IT_number       1

loop_
  _space_group_symop_operation_xyz
  'x, y, z'

loop_
  _atom_site_type_symbol
  _atom_site_label
  _atom_site_symmetry_multiplicity
  _atom_site_fract_x
  _atom_site_fract_y
  _atom_site_fract_z
  _atom_site_occupancy
  Pd  Pd1       1.0  0.24999989196296432  0.2500000040085274  0.24999995779861267  1.0000
  Pd  Pd2       1.0  0.7499998288327242  0.7500002426946584  0.7500000154657275  1.0000
  Ti  Ti1       1.0  1.9222425768087665e-08  0.9999999423327278  0.9999999999603271  1.0000
  O   O1        1.0  0.27594687931199663  0.27594760889427034  0.7240531458193368  1.0000
  O   O2        1.0  0.7240530625841822  0.7240524045185766  0.27594701331950344  1.0000
  O   O3        1.0  0.7240528331499557  0.27594690566529934  0.27594753350556445  1.0000
  O   O4        1.0  0.275947627673741  0.7240531968696864  0.72405224884051  1.0000
  O   O5        1.0  0.2759474363761903  0.7240525072693292  0.2759471104958517  1.0000
  O   O6        1.0  0.7240524004823076  0.27594713916997593  0.7240530428022796  1.0000
