data_image0
_chemical_formula_structural       Pd2TiI6
_chemical_formula_sum              "Pd2 Ti1 I6"
_cell_length_a       7.664814338822882
_cell_length_b       7.664814485881694
_cell_length_c       7.6648144339763515
_cell_angle_alpha    59.99999951556166
_cell_angle_beta     59.99999875370982
_cell_angle_gamma    59.99999954884085

_space_group_name_H-M_alt    "P 1"
_space_group_IT_number       1

loop_
  _space_group_symop_operation_xyz
  'x, y, z'

loop_
  _atom_site_type_symbol
  _atom_site_label
  _atom_site_symmetry_multiplicity
  _atom_site_fract_x
  _atom_site_fract_y
  _atom_site_fract_z
  _atom_site_occupancy
  Pd  Pd1       1.0  0.24999996210144665  0.24999999330090433  0.25000001455577214  1.0000
  Pd  Pd2       1.0  0.7499999124917314  0.7500000550030421  0.7499999851954773  1.0000
  Ti  Ti1       1.0  1.3984019412111536e-08  3.035970736371721e-08  5.2260599259636435e-09  1.0000
  I   I1        1.0  0.24810493318807544  0.24810489158734195  0.7518951115962075  1.0000
  I   I2        1.0  0.751895074723427  0.7518950912035506  0.2481049233995467  1.0000
  I   I3        1.0  0.7518950940828621  0.24810492774685167  0.24810490575535624  1.0000
  I   I4        1.0  0.24810496444114358  0.7518950342716094  0.7518950543058626  1.0000
  I   I5        1.0  0.24810497071071283  0.7518950191501828  0.24810492222397823  1.0000
  I   I6        1.0  0.7518950814217752  0.24810496204283036  0.7518950744996032  1.0000
