data_image0
_chemical_formula_structural       Pd2VS6
_chemical_formula_sum              "Pd2 V1 S6"
_cell_length_a       5.972588161035748
_cell_length_b       5.972588018875069
_cell_length_c       5.972588147849275
_cell_angle_alpha    59.999999894459954
_cell_angle_beta     60.00000086274706
_cell_angle_gamma    59.99999996706971

_space_group_name_H-M_alt    "P 1"
_space_group_IT_number       1

loop_
  _space_group_symop_operation_xyz
  'x, y, z'

loop_
  _atom_site_type_symbol
  _atom_site_label
  _atom_site_symmetry_multiplicity
  _atom_site_fract_x
  _atom_site_fract_y
  _atom_site_fract_z
  _atom_site_occupancy
  Pd  Pd1       1.0  0.25000031168950004  0.2500000090785218  0.24999974114222726  1.0000
  Pd  Pd2       1.0  0.7499997424563547  0.7499999800715323  0.7500000107463652  1.0000
  V   V1        1.0  0.9999999517436938  6.356891043841463e-08  7.773381473971612e-08  1.0000
  S   S1        1.0  0.26356589724777285  0.26356594872515215  0.7364340533702673  1.0000
  S   S2        1.0  0.7364340210755054  0.7364340998925929  0.2635660129579103  1.0000
  S   S3        1.0  0.7364340125253124  0.2635659471942713  0.2635659233300659  1.0000
  S   S4        1.0  0.26356610555795057  0.7364340009435839  0.7364340766149049  1.0000
  S   S5        1.0  0.2635660503096306  0.7364340277997434  0.26356586013999705  1.0000
  S   S6        1.0  0.7364338911567399  0.2635659223887215  0.7364342572258025  1.0000
