data_image0
_chemical_formula_structural       Pd2VBr6
_chemical_formula_sum              "Pd2 V1 Br6"
_cell_length_a       7.058304933147292
_cell_length_b       7.058304983617473
_cell_length_c       7.058304973596239
_cell_angle_alpha    59.99999966582799
_cell_angle_beta     59.999997755822776
_cell_angle_gamma    59.999999622855306

_space_group_name_H-M_alt    "P 1"
_space_group_IT_number       1

loop_
  _space_group_symop_operation_xyz
  'x, y, z'

loop_
  _atom_site_type_symbol
  _atom_site_label
  _atom_site_symmetry_multiplicity
  _atom_site_fract_x
  _atom_site_fract_y
  _atom_site_fract_z
  _atom_site_occupancy
  Pd  Pd1       1.0  0.250000092343029  0.24999996684927556  0.24999996058836083  1.0000
  Pd  Pd2       1.0  0.7499999920086685  0.7500000341568948  0.7500000424770061  1.0000
  V   V1        1.0  0.9999999717097603  0.9999999965296347  3.1464781169291086e-08  1.0000
  Br  Br1       1.0  0.24280921499518554  0.2428092951022351  0.7571907385553475  1.0000
  Br  Br2       1.0  0.7571908121976412  0.7571907006983869  0.24280920643567316  1.0000
  Br  Br3       1.0  0.7571906947638843  0.24280928233690516  0.24280924705063026  1.0000
  Br  Br4       1.0  0.24280926821307572  0.7571907637840152  0.7571907176391122  1.0000
  Br  Br5       1.0  0.24280931450250878  0.7571907255740735  0.2428092277353224  1.0000
  Br  Br6       1.0  0.7571906683553535  0.24280922164143295  0.7571908218033396  1.0000
