data_image0
_chemical_formula_structural       Pd2VF6
_chemical_formula_sum              "Pd2 V1 F6"
_cell_length_a       5.386386386653636
_cell_length_b       5.386386454805907
_cell_length_c       5.386386480549376
_cell_angle_alpha    59.99999927025213
_cell_angle_beta     59.999999728375485
_cell_angle_gamma    60.000002585753585

_space_group_name_H-M_alt    "P 1"
_space_group_IT_number       1

loop_
  _space_group_symop_operation_xyz
  'x, y, z'

loop_
  _atom_site_type_symbol
  _atom_site_label
  _atom_site_symmetry_multiplicity
  _atom_site_fract_x
  _atom_site_fract_y
  _atom_site_fract_z
  _atom_site_occupancy
  Pd  Pd1       1.0  0.2500002282998651  0.2499998868510935  0.24999985832582092  1.0000
  Pd  Pd2       1.0  0.749999902601967  0.7500000266315604  0.7500001024106739  1.0000
  V   V1        1.0  0.9999999611526236  1.3642668687201045e-08  1.4631604751750964e-09  1.0000
  F   F1        1.0  0.2459717769856332  0.24597190965180532  0.7540281560836491  1.0000
  F   F2        1.0  0.7540281538090575  0.7540281925544418  0.24597177692703878  1.0000
  F   F3        1.0  0.7540280824498607  0.24597194810422074  0.24597179312332737  1.0000
  F   F4        1.0  0.2459718620952284  0.7540281450069132  0.7540281951122166  1.0000
  F   F5        1.0  0.2459719204360443  0.7540280874928668  0.24597182520473573  1.0000
  F   F6        1.0  0.7540281174193663  0.24597179643066547  0.7540282840915445  1.0000
