data_image0
_chemical_formula_structural       Pd2VF6
_chemical_formula_sum              "Pd2 V1 F6"
_cell_length_a       5.385191433094308
_cell_length_b       5.385191740502203
_cell_length_c       5.385191789054368
_cell_angle_alpha    59.99999840073278
_cell_angle_beta     59.99999923032048
_cell_angle_gamma    59.99999962059201

_space_group_name_H-M_alt    "P 1"
_space_group_IT_number       1

loop_
  _space_group_symop_operation_xyz
  'x, y, z'

loop_
  _atom_site_type_symbol
  _atom_site_label
  _atom_site_symmetry_multiplicity
  _atom_site_fract_x
  _atom_site_fract_y
  _atom_site_fract_z
  _atom_site_occupancy
  Pd  Pd1       1.0  0.25000011952055284  0.2500000074134261  0.25000003247233227  1.0000
  Pd  Pd2       1.0  0.7500000325556129  0.7499999517375194  0.7499999892756234  1.0000
  V   V1        1.0  0.9999999995020425  0.999999988628586  1.3362462179164266e-08  1.0000
  F   F1        1.0  0.2459782774487659  0.24597829216475867  0.7540216784453343  1.0000
  F   F2        1.0  0.7540216758211603  0.754021710197563  0.2459782948278529  1.0000
  F   F3        1.0  0.7540216619026168  0.24597826997549377  0.24597829961157305  1.0000
  F   F4        1.0  0.24597826905931816  0.7540217028211513  0.7540217255956653  1.0000
  F   F5        1.0  0.24597830572648505  0.7540216675485832  0.2459782851900804  1.0000
  F   F6        1.0  0.754021756790628  0.24597830297377826  0.7540216809475443  1.0000
