data_image0
_chemical_formula_structural       Pd2VCl6
_chemical_formula_sum              "Pd2 V1 Cl6"
_cell_length_a       6.716048502238818
_cell_length_b       6.716050368362321
_cell_length_c       6.7160490373139305
_cell_angle_alpha    60.0000058238887
_cell_angle_beta     59.99999819975592
_cell_angle_gamma    59.999996009837474

_space_group_name_H-M_alt    "P 1"
_space_group_IT_number       1

loop_
  _space_group_symop_operation_xyz
  'x, y, z'

loop_
  _atom_site_type_symbol
  _atom_site_label
  _atom_site_symmetry_multiplicity
  _atom_site_fract_x
  _atom_site_fract_y
  _atom_site_fract_z
  _atom_site_occupancy
  Pd  Pd1       1.0  0.2499999073345623  0.25000023170111557  0.24999999936957815  1.0000
  Pd  Pd2       1.0  0.7500000997469617  0.74999981977112  0.7499999237965833  1.0000
  V   V1        1.0  0.9999999739152801  0.9999999854111334  3.0759587775671205e-08  1.0000
  Cl  Cl1       1.0  0.2392083966641122  0.23920846475799354  0.7607915281841018  1.0000
  Cl  Cl2       1.0  0.7607916138918309  0.7607915247115445  0.23920848231605488  1.0000
  Cl  Cl3       1.0  0.7607915324018271  0.23920841794762573  0.2392084620748154  1.0000
  Cl  Cl4       1.0  0.23920850104458083  0.7607915131664306  0.760791567646821  1.0000
  Cl  Cl5       1.0  0.2392084144271127  0.760791579320847  0.23920846397645446  1.0000
  Cl  Cl6       1.0  0.76079155382232  0.23920846485695782  0.7607915552125303  1.0000
