data_image0
_chemical_formula_structural       Pd2VI6
_chemical_formula_sum              "Pd2 V1 I6"
_cell_length_a       7.51090688834807
_cell_length_b       7.51090687343449
_cell_length_c       7.510906739960407
_cell_angle_alpha    60.000000312488616
_cell_angle_beta     60.000001179199145
_cell_angle_gamma    59.99999873510087

_space_group_name_H-M_alt    "P 1"
_space_group_IT_number       1

loop_
  _space_group_symop_operation_xyz
  'x, y, z'

loop_
  _atom_site_type_symbol
  _atom_site_label
  _atom_site_symmetry_multiplicity
  _atom_site_fract_x
  _atom_site_fract_y
  _atom_site_fract_z
  _atom_site_occupancy
  Pd  Pd1       1.0  0.25000001015298423  0.2499999458216777  0.2500000437905781  1.0000
  Pd  Pd2       1.0  0.7499999598919259  0.7500000445540079  0.7500000045292841  1.0000
  V   V1        1.0  1.7358550315300334e-08  1.6469280491357062e-07  0.9999999742127836  1.0000
  I   I1        1.0  0.24797651011679608  0.24797646716196686  0.7520235118349807  1.0000
  I   I2        1.0  0.7520233378262301  0.7520233960252176  0.2479766731126483  1.0000
  I   I3        1.0  0.752023540307825  0.24797649852845935  0.24797645573551222  1.0000
  I   I4        1.0  0.24797663361783362  0.7520234152079969  0.7520233904982854  1.0000
  I   I5        1.0  0.2479765083100938  0.7520235156199443  0.24797649342218406  1.0000
  I   I6        1.0  0.7520234875582482  0.24797654487248016  0.752023455003103  1.0000
