data_image0
_chemical_formula_structural       Pd2VI6
_chemical_formula_sum              "Pd2 V1 I6"
_cell_length_a       7.507022063422183
_cell_length_b       7.507022203505417
_cell_length_c       7.507022151949415
_cell_angle_alpha    60.000000317487796
_cell_angle_beta     59.99999951854923
_cell_angle_gamma    59.99999998539616

_space_group_name_H-M_alt    "P 1"
_space_group_IT_number       1

loop_
  _space_group_symop_operation_xyz
  'x, y, z'

loop_
  _atom_site_type_symbol
  _atom_site_label
  _atom_site_symmetry_multiplicity
  _atom_site_fract_x
  _atom_site_fract_y
  _atom_site_fract_z
  _atom_site_occupancy
  Pd  Pd1       1.0  0.24999996999229437  0.25000001451947307  0.25000004424466193  1.0000
  Pd  Pd2       1.0  0.7499999957273931  0.7499999293558249  0.7500000030947267  1.0000
  V   V1        1.0  3.884049748563624e-09  1.1420259350818025e-08  3.4036216651456484e-10  1.0000
  I   I1        1.0  0.24793603492038244  0.24793601216206418  0.7520639748650448  1.0000
  I   I2        1.0  0.7520639602722544  0.7520639724998744  0.24793606398627135  1.0000
  I   I3        1.0  0.7520639964155784  0.24793603562451466  0.24793600224710544  1.0000
  I   I4        1.0  0.2479360350397771  0.7520639832982018  0.7520639560515343  1.0000
  I   I5        1.0  0.24793603038898038  0.7520639940283383  0.24793599875809344  1.0000
  I   I6        1.0  0.7520639699299433  0.2479360444719656  0.7520639546632797  1.0000
