data_image0
_chemical_formula_structural       Pd2VCl6
_chemical_formula_sum              "Pd2 V1 Cl6"
_cell_length_a       6.719035324541598
_cell_length_b       6.719035516379839
_cell_length_c       6.719035892540042
_cell_angle_alpha    59.99999718897292
_cell_angle_beta     59.99999970308547
_cell_angle_gamma    60.000000005291625

_space_group_name_H-M_alt    "P 1"
_space_group_IT_number       1

loop_
  _space_group_symop_operation_xyz
  'x, y, z'

loop_
  _atom_site_type_symbol
  _atom_site_label
  _atom_site_symmetry_multiplicity
  _atom_site_fract_x
  _atom_site_fract_y
  _atom_site_fract_z
  _atom_site_occupancy
  Pd  Pd1       1.0  0.2499998727411928  0.2499999728847248  0.2500000598162853  1.0000
  Pd  Pd2       1.0  0.7499997726964506  0.7500002595175163  0.7500004928731535  1.0000
  V   V1        1.0  4.81194289387449e-08  1.2647025744281494e-15  0.9999999402208755  1.0000
  Cl  Cl1       1.0  0.23912462081113758  0.23912407574974387  0.760875613941015  1.0000
  Cl  Cl2       1.0  0.7608756596477149  0.7608756900160586  0.2391241654690965  1.0000
  Cl  Cl3       1.0  0.7608756039457126  0.23912435302270657  0.23912418074828337  1.0000
  Cl  Cl4       1.0  0.23912430736704035  0.7608756952768854  0.760875661315988  1.0000
  Cl  Cl5       1.0  0.23912449296010424  0.7608757332195012  0.23912405036472742  1.0000
  Cl  Cl6       1.0  0.760875610571287  0.2391242385225463  0.7608758454921584  1.0000
