data_image0
_chemical_formula_structural       Pd2WF6
_chemical_formula_sum              "Pd2 W1 F6"
_cell_length_a       5.9364649138964625
_cell_length_b       5.936464222655587
_cell_length_c       5.936464951197834
_cell_angle_alpha    59.99999699136311
_cell_angle_beta     59.99999668268412
_cell_angle_gamma    59.99999756891967

_space_group_name_H-M_alt    "P 1"
_space_group_IT_number       1

loop_
  _space_group_symop_operation_xyz
  'x, y, z'

loop_
  _atom_site_type_symbol
  _atom_site_label
  _atom_site_symmetry_multiplicity
  _atom_site_fract_x
  _atom_site_fract_y
  _atom_site_fract_z
  _atom_site_occupancy
  Pd  Pd1       1.0  0.25000002821776657  0.24999983295577993  0.24999986412491498  1.0000
  Pd  Pd2       1.0  0.7499999914533856  0.750000204443511  0.7499998875546151  1.0000
  W   W1        1.0  1.821382089125877e-08  0.9999999628644138  4.483546959266118e-08  1.0000
  F   F1        1.0  0.23243151244367555  0.23243146026139144  0.7675684913002794  1.0000
  F   F2        1.0  0.7675683734674251  0.7675685874533436  0.23243155119412537  1.0000
  F   F3        1.0  0.7675686350858947  0.23243155824685904  0.23243151198022685  1.0000
  F   F4        1.0  0.23243137737455982  0.7675684832786154  0.7675685444523124  1.0000
  F   F5        1.0  0.23243151524436556  0.7675685634538678  0.2324315254815467  1.0000
  F   F6        1.0  0.7675684617526082  0.2324314677561661  0.7675685976375622  1.0000
