data_image0
_chemical_formula_structural       Pd2YI6
_chemical_formula_sum              "Pd2 Y1 I6"
_cell_length_a       8.006525394748463
_cell_length_b       8.006525232821485
_cell_length_c       8.006525413230241
_cell_angle_alpha    59.9999997382933
_cell_angle_beta     59.999999258556834
_cell_angle_gamma    60.0000005548995

_space_group_name_H-M_alt    "P 1"
_space_group_IT_number       1

loop_
  _space_group_symop_operation_xyz
  'x, y, z'

loop_
  _atom_site_type_symbol
  _atom_site_label
  _atom_site_symmetry_multiplicity
  _atom_site_fract_x
  _atom_site_fract_y
  _atom_site_fract_z
  _atom_site_occupancy
  Pd  Pd1       1.0  0.2499999883404505  0.25000002115416237  0.25000000782251175  1.0000
  Pd  Pd2       1.0  0.7499999949451663  0.7499999563846489  0.7499999671219726  1.0000
  Y   Y1        1.0  0.9999998872734464  1.1319657026075707e-07  4.2230354667185177e-08  1.0000
  I   I1        1.0  0.2640680546420123  0.2640680692215166  0.7359319310578313  1.0000
  I   I2        1.0  0.7359319529710145  0.7359319435000137  0.264068085323519  1.0000
  I   I3        1.0  0.7359319362144141  0.264068047448911  0.26406806545606804  1.0000
  I   I4        1.0  0.264068149759826  0.7359318643135151  0.7359318473179532  1.0000
  I   I5        1.0  0.26406813646608257  0.7359318314764252  0.2640681273723093  1.0000
  I   I6        1.0  0.7359318971215414  0.2640681552404879  0.7359319277424691  1.0000
