data_image0
_chemical_formula_structural       Pd2YF6
_chemical_formula_sum              "Pd2 Y1 F6"
_cell_length_a       5.703856733213279
_cell_length_b       5.703856896251752
_cell_length_c       5.703856683506844
_cell_angle_alpha    60.00000193193055
_cell_angle_beta     60.0000016988575
_cell_angle_gamma    60.000001244489404

_space_group_name_H-M_alt    "P 1"
_space_group_IT_number       1

loop_
  _space_group_symop_operation_xyz
  'x, y, z'

loop_
  _atom_site_type_symbol
  _atom_site_label
  _atom_site_symmetry_multiplicity
  _atom_site_fract_x
  _atom_site_fract_y
  _atom_site_fract_z
  _atom_site_occupancy
  Pd  Pd1       1.0  0.24999960322629933  0.2500003223357304  0.2499999953124873  1.0000
  Pd  Pd2       1.0  0.7499997799909971  0.7499996958516125  0.7500000995420107  1.0000
  Y   Y1        1.0  0.9999999749912124  2.1472225097114936e-09  5.876717502078938e-08  1.0000
  F   F1        1.0  0.26377764015020916  0.26377764660838376  0.736222339171161  1.0000
  F   F2        1.0  0.7362225167045802  0.7362222491872873  0.2637777035595923  1.0000
  F   F3        1.0  0.7362224790216086  0.2637776949745961  0.26377756633979865  1.0000
  F   F4        1.0  0.26377778805003155  0.7362222952988536  0.7362224196268344  1.0000
  F   F5        1.0  0.2637777351377842  0.7362223670837589  0.2637774874784554  1.0000
  F   F6        1.0  0.7362224583985645  0.26377772840358116  0.736222314341704  1.0000
