data_image0
_chemical_formula_structural       Pd2ZnCl6
_chemical_formula_sum              "Pd2 Zn1 Cl6"
_cell_length_a       6.561794498744655
_cell_length_b       6.561793889428256
_cell_length_c       6.5617943870143955
_cell_angle_alpha    59.999997942691344
_cell_angle_beta     60.00000167910692
_cell_angle_gamma    60.000000053426206

_space_group_name_H-M_alt    "P 1"
_space_group_IT_number       1

loop_
  _space_group_symop_operation_xyz
  'x, y, z'

loop_
  _atom_site_type_symbol
  _atom_site_label
  _atom_site_symmetry_multiplicity
  _atom_site_fract_x
  _atom_site_fract_y
  _atom_site_fract_z
  _atom_site_occupancy
  Pd  Pd1       1.0  0.25000000702651104  0.25000010206343365  0.25000010942236783  1.0000
  Pd  Pd2       1.0  0.7500001168800771  0.7499996809199114  0.7500002805874812  1.0000
  Zn  Zn1       1.0  1.3492333975641146e-08  0.9999999384062006  4.843430676251957e-08  1.0000
  Cl  Cl1       1.0  0.25568118377904087  0.25568133183886915  0.7443187121465576  1.0000
  Cl  Cl2       1.0  0.7443187879852077  0.7443187703123431  0.25568120268936745  1.0000
  Cl  Cl3       1.0  0.7443186939722236  0.25568134457092245  0.2556811076349129  1.0000
  Cl  Cl4       1.0  0.2556812873195929  0.7443187501143749  0.7443186918721819  1.0000
  Cl  Cl5       1.0  0.2556812900779911  0.7443186936812655  0.25568112495237005  1.0000
  Cl  Cl6       1.0  0.7443186348139453  0.2556813748733275  0.7443187341076972  1.0000
