data_image0
_chemical_formula_structural       Pd2ZnF6
_chemical_formula_sum              "Pd2 Zn1 F6"
_cell_length_a       5.305642309721544
_cell_length_b       5.305642346937807
_cell_length_c       5.305642247678658
_cell_angle_alpha    59.999996903369315
_cell_angle_beta     59.99999763982783
_cell_angle_gamma    59.999998618280635

_space_group_name_H-M_alt    "P 1"
_space_group_IT_number       1

loop_
  _space_group_symop_operation_xyz
  'x, y, z'

loop_
  _atom_site_type_symbol
  _atom_site_label
  _atom_site_symmetry_multiplicity
  _atom_site_fract_x
  _atom_site_fract_y
  _atom_site_fract_z
  _atom_site_occupancy
  Pd  Pd1       1.0  0.24999989526938515  0.24999986374985325  0.24999994923466798  1.0000
  Pd  Pd2       1.0  0.7499999688596313  0.7500000413840208  0.7500001879057508  1.0000
  Zn  Zn1       1.0  0.9999999664530694  9.233526352274153e-09  5.3621993618780984e-08  1.0000
  F   F1        1.0  0.2561130181927171  0.2561129604166233  0.7438870721308788  1.0000
  F   F2        1.0  0.743886981968394  0.7438870393609129  0.25611291197593694  1.0000
  F   F3        1.0  0.7438871115876664  0.25611304217210107  0.2561129934391374  1.0000
  F   F4        1.0  0.2561129936536779  0.7438870014646917  0.7438869501240772  1.0000
  F   F5        1.0  0.2561130832672241  0.7438870538805192  0.25611301136843806  1.0000
  F   F6        1.0  0.7438869898340936  0.25611300129818465  0.7438868972589717  1.0000
