data_image0
_chemical_formula_structural       Pd2ZnI6
_chemical_formula_sum              "Pd2 Zn1 I6"
_cell_length_a       7.478899226308368
_cell_length_b       7.47889928744079
_cell_length_c       7.478899235715529
_cell_angle_alpha    60.00000047896559
_cell_angle_beta     60.000000885683775
_cell_angle_gamma    59.99999976041218

_space_group_name_H-M_alt    "P 1"
_space_group_IT_number       1

loop_
  _space_group_symop_operation_xyz
  'x, y, z'

loop_
  _atom_site_type_symbol
  _atom_site_label
  _atom_site_symmetry_multiplicity
  _atom_site_fract_x
  _atom_site_fract_y
  _atom_site_fract_z
  _atom_site_occupancy
  Pd  Pd1       1.0  0.24999995913366924  0.2500000289364373  0.2500000231841189  1.0000
  Pd  Pd2       1.0  0.7499999984066824  0.7500000294932958  0.7499999360882955  1.0000
  Zn  Zn1       1.0  1.2461280912593949e-08  0.9999999672479913  3.4598880937941407e-09  1.0000
  I   I1        1.0  0.2582879282574105  0.2582878489739894  0.7417120982104731  1.0000
  I   I2        1.0  0.7417121137798165  0.7417121505021276  0.2582878990999286  1.0000
  I   I3        1.0  0.741712097085563  0.25828786952416216  0.2582879002174178  1.0000
  I   I4        1.0  0.25828786521241665  0.7417121283143553  0.7417121364443116  1.0000
  I   I5        1.0  0.25828786559412625  0.7417121089860269  0.2582878763761558  1.0000
  I   I6        1.0  0.7417121578381792  0.2582878675636844  0.7417121256547672  1.0000
