data_image0
_chemical_formula_structural       Pd2ZnBr6
_chemical_formula_sum              "Pd2 Zn1 Br6"
_cell_length_a       6.9992252110907245
_cell_length_b       6.999225192220118
_cell_length_c       6.999225132454002
_cell_angle_alpha    60.000000224331
_cell_angle_beta     60.00000053457139
_cell_angle_gamma    59.9999998686483

_space_group_name_H-M_alt    "P 1"
_space_group_IT_number       1

loop_
  _space_group_symop_operation_xyz
  'x, y, z'

loop_
  _atom_site_type_symbol
  _atom_site_label
  _atom_site_symmetry_multiplicity
  _atom_site_fract_x
  _atom_site_fract_y
  _atom_site_fract_z
  _atom_site_occupancy
  Pd  Pd1       1.0  0.2499998779552613  0.25000007898909227  0.25000003512342395  1.0000
  Pd  Pd2       1.0  0.7500000555912875  0.7499999517451138  0.7499999428224497  1.0000
  Zn  Zn1       1.0  1.1565453785678179e-08  0.9999999702529033  2.0520658128129224e-08  1.0000
  Br  Br1       1.0  0.2527983545507898  0.2527983929709611  0.7472016218025165  1.0000
  Br  Br2       1.0  0.747201678015387  0.7472015782690513  0.2527983963872826  1.0000
  Br  Br3       1.0  0.7472016388616375  0.2527983741735151  0.2527983684383246  1.0000
  Br  Br4       1.0  0.2527983844550209  0.7472016495613739  0.7472016152702291  1.0000
  Br  Br5       1.0  0.25279835753759927  0.747201623944138  0.25279838053161646  1.0000
  Br  Br6       1.0  0.7472016462822247  0.25279838404228827  0.747201609369749  1.0000
