data_image0
_chemical_formula_structural       Pt2AgBr6
_chemical_formula_sum              "Pt2 Ag1 Br6"
_cell_length_a       6.984235727325314
_cell_length_b       6.984235365091845
_cell_length_c       6.984235678008325
_cell_angle_alpha    59.99999741565665
_cell_angle_beta     59.99999821795008
_cell_angle_gamma    59.99999824678312

_space_group_name_H-M_alt    "P 1"
_space_group_IT_number       1

loop_
  _space_group_symop_operation_xyz
  'x, y, z'

loop_
  _atom_site_type_symbol
  _atom_site_label
  _atom_site_symmetry_multiplicity
  _atom_site_fract_x
  _atom_site_fract_y
  _atom_site_fract_z
  _atom_site_occupancy
  Pt  Pt1       1.0  0.24999981933365661  0.2500001187834916  0.24999994214897706  1.0000
  Pt  Pt2       1.0  0.7500001157033669  0.7499998811289934  0.7499999814753618  1.0000
  Ag  Ag1       1.0  2.3063054529220107e-08  0.9999999754498126  3.653846377205829e-08  1.0000
  Br  Br1       1.0  0.25607885552863285  0.2560789128981792  0.7439211458325471  1.0000
  Br  Br2       1.0  0.743921165379465  0.7439210922750603  0.2560788782690576  1.0000
  Br  Br3       1.0  0.7439211547201933  0.2560788951285474  0.25607888039971066  1.0000
  Br  Br4       1.0  0.2560788898354884  0.7439210837409201  0.7439211249848454  1.0000
  Br  Br5       1.0  0.25607885304226413  0.7439210948890075  0.2560789318623218  1.0000
  Br  Br6       1.0  0.7439211192182394  0.2560789471095128  0.7439210824006852  1.0000
