data_image0
_chemical_formula_structural       Pt2AuF6
_chemical_formula_sum              "Pt2 Au1 F6"
_cell_length_a       5.523290960150891
_cell_length_b       5.52329122448906
_cell_length_c       5.523290814863625
_cell_angle_alpha    60.00000007502752
_cell_angle_beta     59.999999058391275
_cell_angle_gamma    60.000003079374565

_space_group_name_H-M_alt    "P 1"
_space_group_IT_number       1

loop_
  _space_group_symop_operation_xyz
  'x, y, z'

loop_
  _atom_site_type_symbol
  _atom_site_label
  _atom_site_symmetry_multiplicity
  _atom_site_fract_x
  _atom_site_fract_y
  _atom_site_fract_z
  _atom_site_occupancy
  Pt  Pt1       1.0  0.25000001962423607  0.25000007229860216  0.24999988865054695  1.0000
  Pt  Pt2       1.0  0.7500000183325382  0.7499999308488038  0.7500001641904788  1.0000
  Au  Au1       1.0  0.9999999960506705  2.4391603640200528e-08  1.3315555512754111e-08  1.0000
  F   F1        1.0  0.25909940451649005  0.25909938370571706  0.740900526193577  1.0000
  F   F2        1.0  0.7409006340308534  0.7409006615726453  0.2590993278562305  1.0000
  F   F3        1.0  0.7409005482856321  0.25909945713456256  0.25909932752310344  1.0000
  F   F4        1.0  0.2590993636444318  0.7409005038818895  0.7409006899027771  1.0000
  F   F5        1.0  0.2590994096488296  0.7409005490517981  0.2590993868408783  1.0000
  F   F6        1.0  0.7409006049743835  0.2590993986601437  0.7409006727953943  1.0000
