data_image0
_chemical_formula_structural       Pt2AuCl6
_chemical_formula_sum              "Pt2 Au1 Cl6"
_cell_length_a       6.559787816244919
_cell_length_b       6.559787893856826
_cell_length_c       6.5597880826655555
_cell_angle_alpha    59.999998687666746
_cell_angle_beta     59.99999836064761
_cell_angle_gamma    59.999997638054566

_space_group_name_H-M_alt    "P 1"
_space_group_IT_number       1

loop_
  _space_group_symop_operation_xyz
  'x, y, z'

loop_
  _atom_site_type_symbol
  _atom_site_label
  _atom_site_symmetry_multiplicity
  _atom_site_fract_x
  _atom_site_fract_y
  _atom_site_fract_z
  _atom_site_occupancy
  Pt  Pt1       1.0  0.25000013967303875  0.2500000978371443  0.2499998721800084  1.0000
  Pt  Pt2       1.0  0.7499999760777326  0.7499998902287417  0.7500000762386122  1.0000
  Au  Au1       1.0  0.9999999773117104  2.0537545311545225e-08  0.9999999934531747  1.0000
  Cl  Cl1       1.0  0.2581858800446134  0.2581859545717566  0.7418140474676834  1.0000
  Cl  Cl2       1.0  0.7418140659726729  0.7418140727021728  0.25818591133383667  1.0000
  Cl  Cl3       1.0  0.7418140908956097  0.2581858978186686  0.2581859122352139  1.0000
  Cl  Cl4       1.0  0.2581858909860918  0.7418140641085263  0.7418141344805617  1.0000
  Cl  Cl5       1.0  0.2581858702743199  0.7418141252883018  0.25818591924687273  1.0000
  Cl  Cl6       1.0  0.7418141049567692  0.2581858777139829  0.7418141498920906  1.0000
