data_image0
_chemical_formula_structural       Pt2BeCl6
_chemical_formula_sum              "Pt2 Be1 Cl6"
_cell_length_a       6.127549203116156
_cell_length_b       6.127549037988907
_cell_length_c       6.127549334638208
_cell_angle_alpha    59.99999341960015
_cell_angle_beta     59.999995697669505
_cell_angle_gamma    59.99999230138608

_space_group_name_H-M_alt    "P 1"
_space_group_IT_number       1

loop_
  _space_group_symop_operation_xyz
  'x, y, z'

loop_
  _atom_site_type_symbol
  _atom_site_label
  _atom_site_symmetry_multiplicity
  _atom_site_fract_x
  _atom_site_fract_y
  _atom_site_fract_z
  _atom_site_occupancy
  Pt  Pt1       1.0  0.2499993889675319  0.25000060423797443  0.24999953231979122  1.0000
  Pt  Pt2       1.0  0.7499997387496454  0.749999889914536  0.7500007536517708  1.0000
  Be  Be1       1.0  0.9999999949933133  3.198003039120005e-08  0.9999999587697724  1.0000
  Cl  Cl1       1.0  0.2459417307935894  0.24594125593369798  0.7540587559597711  1.0000
  Cl  Cl2       1.0  0.7540589292786061  0.7540581349077494  0.24594144604771745  1.0000
  Cl  Cl3       1.0  0.7540585902366314  0.24594169984728023  0.24594117149928324  1.0000
  Cl  Cl4       1.0  0.24594131903392102  0.7540584904949404  0.7540585361501752  1.0000
  Cl  Cl5       1.0  0.24594174091902993  0.7540584163367839  0.24594130113146803  1.0000
  Cl  Cl6       1.0  0.7540585631568156  0.2459414602013789  0.7540585667501518  1.0000
