data_image0
_chemical_formula_structural       Pt2BeI6
_chemical_formula_sum              "Pt2 Be1 I6"
_cell_length_a       7.29063403880032
_cell_length_b       7.290633936643494
_cell_length_c       7.290634046887082
_cell_angle_alpha    59.999999035584345
_cell_angle_beta     59.99999963314992
_cell_angle_gamma    59.99999912291254

_space_group_name_H-M_alt    "P 1"
_space_group_IT_number       1

loop_
  _space_group_symop_operation_xyz
  'x, y, z'

loop_
  _atom_site_type_symbol
  _atom_site_label
  _atom_site_symmetry_multiplicity
  _atom_site_fract_x
  _atom_site_fract_y
  _atom_site_fract_z
  _atom_site_occupancy
  Pt  Pt1       1.0  0.2499998881189652  0.2500002611514145  0.24999984658075308  1.0000
  Pt  Pt2       1.0  0.7499999207237321  0.7500000191051784  0.749999648341357  1.0000
  Be  Be1       1.0  0.9999999781944232  8.39944036406332e-09  0.9999999916152172  1.0000
  I   I1        1.0  0.24677642441867526  0.24677631542483397  0.7532236454831922  1.0000
  I   I2        1.0  0.7532236539827013  0.7532235885368317  0.24677653924002915  1.0000
  I   I3        1.0  0.753223673062602  0.24677627553867096  0.2467764452771098  1.0000
  I   I4        1.0  0.24677640845977952  0.7532235477883682  0.7532237425407294  1.0000
  I   I5        1.0  0.24677638430156112  0.7532235683004206  0.24677645236504184  1.0000
  I   I6        1.0  0.7532236694614572  0.24677640957631974  0.7532236885171015  1.0000
