data_image0
_chemical_formula_structural       Pt2BeF6
_chemical_formula_sum              "Pt2 Be1 F6"
_cell_length_a       5.000761231065781
_cell_length_b       5.000761250263211
_cell_length_c       5.000761273041743
_cell_angle_alpha    59.99999980928951
_cell_angle_beta     59.99999933675577
_cell_angle_gamma    60.0000006041579

_space_group_name_H-M_alt    "P 1"
_space_group_IT_number       1

loop_
  _space_group_symop_operation_xyz
  'x, y, z'

loop_
  _atom_site_type_symbol
  _atom_site_label
  _atom_site_symmetry_multiplicity
  _atom_site_fract_x
  _atom_site_fract_y
  _atom_site_fract_z
  _atom_site_occupancy
  Pt  Pt1       1.0  0.24999991109175845  0.2500000644001894  0.24999999214865806  1.0000
  Pt  Pt2       1.0  0.7499999705271982  0.75000002176239  0.7499999735345344  1.0000
  Be  Be1       1.0  0.9999999932129187  0.9999999926526494  0.9999999890699561  1.0000
  F   F1        1.0  0.24329926058375445  0.2432992370326216  0.7567007717976275  1.0000
  F   F2        1.0  0.7567007770261578  0.7567007413688175  0.24329923176121857  1.0000
  F   F3        1.0  0.756700766457855  0.24329924356922744  0.24329924797083702  1.0000
  F   F4        1.0  0.24329929832441402  0.7567007225866276  0.7567007581231003  1.0000
  F   F5        1.0  0.24329926748782116  0.7567007171733574  0.24329926799359652  1.0000
  F   F6        1.0  0.7567007470315958  0.24329926122808132  0.7567007651077572  1.0000
