data_image0
_chemical_formula_structural       Pt2CrO6
_chemical_formula_sum              "Pt2 Cr1 O6"
_cell_length_a       3.3722378069377745
_cell_length_b       3.133576062967463
_cell_length_c       3.649406035820536
_cell_angle_alpha    48.438747535038516
_cell_angle_beta     54.89782883777926
_cell_angle_gamma    56.46114571052037

_space_group_name_H-M_alt    "P 1"
_space_group_IT_number       1

loop_
  _space_group_symop_operation_xyz
  'x, y, z'

loop_
  _atom_site_type_symbol
  _atom_site_label
  _atom_site_symmetry_multiplicity
  _atom_site_fract_x
  _atom_site_fract_y
  _atom_site_fract_z
  _atom_site_occupancy
  Pt  Pt1       1.0  0.7005008527983604  0.18394373597767197  0.25819182045331557  1.0000
  Pt  Pt2       1.0  0.47976041286127824  0.3243759838960777  0.414877767049611  1.0000
  Cr  Cr1       1.0  0.8530711577709913  0.929490726532091  0.4727668535721209  1.0000
  O   O1        1.0  0.3779077792021914  0.5394342195052283  0.16744521946412635  1.0000
  O   O2        1.0  0.9560609343174454  0.7217121092713812  0.26537357879308476  1.0000
  O   O3        1.0  0.15721397985831764  0.6536100895219786  0.6783066761138503  1.0000
  O   O4        1.0  0.6151537980513475  0.38514129884723103  0.991325038824347  1.0000
  O   O5        1.0  0.5633340651918799  0.7743450796815723  0.39651464346358745  1.0000
  O   O6        1.0  0.8889039036341413  0.7818903721027383  0.885405767363685  1.0000
