data_image0
_chemical_formula_structural       Pt2CCl6
_chemical_formula_sum              "Pt2 C1 Cl6"
_cell_length_a       6.3902737297882615
_cell_length_b       6.390273875010479
_cell_length_c       6.3902738184577235
_cell_angle_alpha    60.0000018339545
_cell_angle_beta     60.00000036964038
_cell_angle_gamma    60.00000088772478

_space_group_name_H-M_alt    "P 1"
_space_group_IT_number       1

loop_
  _space_group_symop_operation_xyz
  'x, y, z'

loop_
  _atom_site_type_symbol
  _atom_site_label
  _atom_site_symmetry_multiplicity
  _atom_site_fract_x
  _atom_site_fract_y
  _atom_site_fract_z
  _atom_site_occupancy
  Pt  Pt1       1.0  0.24999985569076352  0.24999996167969268  0.25000008182907235  1.0000
  Pt  Pt2       1.0  0.7500000330469916  0.7500000862796049  0.7500000182913239  1.0000
  C   C1        1.0  5.777502811550629e-07  0.999999172038958  0.999999413085807  1.0000
  Cl  Cl1       1.0  0.239139935107826  0.23913990882957686  0.7608601482805555  1.0000
  Cl  Cl2       1.0  0.7608601317146447  0.7608602445414246  0.2391398116565116  1.0000
  Cl  Cl3       1.0  0.760859914651911  0.2391401361506725  0.23914012296067133  1.0000
  Cl  Cl4       1.0  0.2391395794467933  0.7608604235345471  0.7608603693012057  1.0000
  Cl  Cl5       1.0  0.23913984007361172  0.7608601381493616  0.23913990229025142  1.0000
  Cl  Cl6       1.0  0.7608601426263591  0.23913990980993496  0.7608601211163528  1.0000
