data_image0
_chemical_formula_structural       Pt2CdF6
_chemical_formula_sum              "Pt2 Cd1 F6"
_cell_length_a       5.651372697317341
_cell_length_b       5.6513737788682805
_cell_length_c       5.651372615300192
_cell_angle_alpha    59.99999541263462
_cell_angle_beta     59.99999477223222
_cell_angle_gamma    60.00000113230199

_space_group_name_H-M_alt    "P 1"
_space_group_IT_number       1

loop_
  _space_group_symop_operation_xyz
  'x, y, z'

loop_
  _atom_site_type_symbol
  _atom_site_label
  _atom_site_symmetry_multiplicity
  _atom_site_fract_x
  _atom_site_fract_y
  _atom_site_fract_z
  _atom_site_occupancy
  Pt  Pt1       1.0  0.24999930580813953  0.25000247800272685  0.24999910450218868  1.0000
  Pt  Pt2       1.0  0.7499999326671857  0.7499996842326907  0.7500014742645762  1.0000
  Cd  Cd1       1.0  5.839254939268807e-09  8.668651353972039e-08  6.521445042964048e-08  1.0000
  F   F1        1.0  0.26656433297406545  0.2665649556618327  0.7334351592601829  1.0000
  F   F2        1.0  0.7334362869113943  0.7334343740915806  0.2665643083207743  1.0000
  F   F3        1.0  0.7334352693406536  0.2665650041177793  0.26656426387374177  1.0000
  F   F4        1.0  0.266564488528334  0.7334345640235194  0.73343596673934  1.0000
  F   F5        1.0  0.26656531587499294  0.7334346879630549  0.26656416096008173  1.0000
  F   F6        1.0  0.7334350812039113  0.2665641823517857  0.7334355079544403  1.0000
