data_image0
_chemical_formula_structural       Pt2CdBr6
_chemical_formula_sum              "Pt2 Cd1 Br6"
_cell_length_a       7.0704011311074035
_cell_length_b       7.07040096408397
_cell_length_c       7.070401281037564
_cell_angle_alpha    59.99999956881603
_cell_angle_beta     59.999999742569486
_cell_angle_gamma    60.0000008259447

_space_group_name_H-M_alt    "P 1"
_space_group_IT_number       1

loop_
  _space_group_symop_operation_xyz
  'x, y, z'

loop_
  _atom_site_type_symbol
  _atom_site_label
  _atom_site_symmetry_multiplicity
  _atom_site_fract_x
  _atom_site_fract_y
  _atom_site_fract_z
  _atom_site_occupancy
  Pt  Pt1       1.0  0.25000004711282214  0.25000012008898337  0.24999994036697418  1.0000
  Pt  Pt2       1.0  0.7500001080359611  0.75000013681132  0.749999798144872  1.0000
  Cd  Cd1       1.0  0.9999999953977595  0.9999999844100728  4.686910264492847e-08  1.0000
  Br  Br1       1.0  0.2628683076142773  0.2628683582118317  0.7371316147521821  1.0000
  Br  Br2       1.0  0.7371317043498018  0.7371316423207721  0.2628683221215165  1.0000
  Br  Br3       1.0  0.7371316393077256  0.26286832733700327  0.2628683586384245  1.0000
  Br  Br4       1.0  0.2628682953890216  0.7371315571372509  0.7371317739023954  1.0000
  Br  Br5       1.0  0.2628682642190147  0.7371315903872837  0.2628684140070388  1.0000
  Br  Br6       1.0  0.7371316402234755  0.26286828196147055  0.7371317269945372  1.0000
