data_image0
_chemical_formula_structural       Pt2CoF6
_chemical_formula_sum              "Pt2 Co1 F6"
_cell_length_a       5.1429565427939155
_cell_length_b       5.14295654465818
_cell_length_c       5.1429565670230435
_cell_angle_alpha    60.00000010358598
_cell_angle_beta     60.00000035626474
_cell_angle_gamma    60.00000004857185

_space_group_name_H-M_alt    "P 1"
_space_group_IT_number       1

loop_
  _space_group_symop_operation_xyz
  'x, y, z'

loop_
  _atom_site_type_symbol
  _atom_site_label
  _atom_site_symmetry_multiplicity
  _atom_site_fract_x
  _atom_site_fract_y
  _atom_site_fract_z
  _atom_site_occupancy
  Pt  Pt1       1.0  0.2499999864412628  0.24999999567291006  0.2500000194172308  1.0000
  Pt  Pt2       1.0  0.7500000064731486  0.7499999870187302  0.7500000016220958  1.0000
  Co  Co1       1.0  1.451406713894556e-09  2.381402303580379e-09  0.9999999669730858  1.0000
  F   F1        1.0  0.24936208454803507  0.24936211367976271  0.750637897063126  1.0000
  F   F2        1.0  0.7506378828752915  0.7506378713932799  0.24936212386460066  1.0000
  F   F3        1.0  0.7506378964520382  0.24936212021615028  0.2493620924565275  1.0000
  F   F4        1.0  0.24936211122546398  0.7506379124849389  0.7506378728636471  1.0000
  F   F5        1.0  0.24936211869489044  0.7506379025232748  0.24936211251174875  1.0000
  F   F6        1.0  0.7506379143608694  0.2493620944567794  0.7506379104787996  1.0000
