data_image0
_chemical_formula_structural       Pt2CoCl6
_chemical_formula_sum              "Pt2 Co1 Cl6"
_cell_length_a       6.360060871457252
_cell_length_b       6.36006091084521
_cell_length_c       6.360061044650438
_cell_angle_alpha    59.99999807804686
_cell_angle_beta     59.999998543722086
_cell_angle_gamma    59.99999625601186

_space_group_name_H-M_alt    "P 1"
_space_group_IT_number       1

loop_
  _space_group_symop_operation_xyz
  'x, y, z'

loop_
  _atom_site_type_symbol
  _atom_site_label
  _atom_site_symmetry_multiplicity
  _atom_site_fract_x
  _atom_site_fract_y
  _atom_site_fract_z
  _atom_site_occupancy
  Pt  Pt1       1.0  0.2500000194292046  0.24999996173367073  0.2500000497118145  1.0000
  Pt  Pt2       1.0  0.7499998252710265  0.7500000450325509  0.7500001259801131  1.0000
  Co  Co1       1.0  0.9999999679242088  6.354747710284436e-08  0.9999999889810925  1.0000
  Cl  Cl1       1.0  0.2472438574534084  0.24724383447503584  0.7527561326803744  1.0000
  Cl  Cl2       1.0  0.7527561828133092  0.7527561357032421  0.247243711952369  1.0000
  Cl  Cl3       1.0  0.7527562284362057  0.24724383386701992  0.2472437833286479  1.0000
  Cl  Cl4       1.0  0.2472438397245453  0.7527561016489962  0.7527561684607987  1.0000
  Cl  Cl5       1.0  0.24724386915517618  0.7527561634584681  0.24724389938429597  1.0000
  Cl  Cl6       1.0  0.7527562173246438  0.24724385871319512  0.7527561508597393  1.0000
