data_image0
_chemical_formula_structural       Pt2CaBr6
_chemical_formula_sum              "Pt2 Ca1 Br6"
_cell_length_a       7.262147836957972
_cell_length_b       7.2621478182000025
_cell_length_c       7.262147949565403
_cell_angle_alpha    60.000000639688174
_cell_angle_beta     59.99999938454206
_cell_angle_gamma    60.0000002421809

_space_group_name_H-M_alt    "P 1"
_space_group_IT_number       1

loop_
  _space_group_symop_operation_xyz
  'x, y, z'

loop_
  _atom_site_type_symbol
  _atom_site_label
  _atom_site_symmetry_multiplicity
  _atom_site_fract_x
  _atom_site_fract_y
  _atom_site_fract_z
  _atom_site_occupancy
  Pt  Pt1       1.0  0.2500000947648044  0.24999987623929587  0.25000001736184774  1.0000
  Pt  Pt2       1.0  0.7499999514248069  0.7500001026180553  0.7500000696984633  1.0000
  Ca  Ca1       1.0  0.999999982140455  0.9999999915676124  0.9999999993759355  1.0000
  Br  Br1       1.0  0.26687803439328234  0.26687799980022475  0.7331219673523716  1.0000
  Br  Br2       1.0  0.7331219732333475  0.7331220279649706  0.26687796168816835  1.0000
  Br  Br3       1.0  0.7331220051208377  0.26687800691437974  0.2668779827931947  1.0000
  Br  Br4       1.0  0.2668779933514396  0.7331220006130864  0.7331219815984319  1.0000
  Br  Br5       1.0  0.26687798799488416  0.7331220562883675  0.2668779810319549  1.0000
  Br  Br6       1.0  0.7331219730718255  0.2668779394337567  0.7331220396361969  1.0000
