data_image0
_chemical_formula_structural       Pt2CoO6
_chemical_formula_sum              "Pt2 Co1 O6"
_cell_length_a       4.26263410289103
_cell_length_b       4.262635044542708
_cell_length_c       4.262634065624692
_cell_angle_alpha    60.00000790783555
_cell_angle_beta     60.00000347174091
_cell_angle_gamma    59.99999131566585

_space_group_name_H-M_alt    "P 1"
_space_group_IT_number       1

loop_
  _space_group_symop_operation_xyz
  'x, y, z'

loop_
  _atom_site_type_symbol
  _atom_site_label
  _atom_site_symmetry_multiplicity
  _atom_site_fract_x
  _atom_site_fract_y
  _atom_site_fract_z
  _atom_site_occupancy
  Pt  Pt1       1.0  0.2500020404013986  0.2500015145102176  0.24999723379504865  1.0000
  Pt  Pt2       1.0  0.749997910369984  0.7499996274688916  0.7500015374572647  1.0000
  Co  Co1       1.0  0.9999992809191276  0.9999996379755974  1.3475653600644647e-06  1.0000
  O   O1        1.0  0.25159789141844663  0.2515935817967284  0.7484057677888358  1.0000
  O   O2        1.0  0.7484035394393802  0.7484079796708301  0.2515935245975453  1.0000
  O   O3        1.0  0.7484058628733768  0.25159488814708997  0.2515941620288152  1.0000
  O   O4        1.0  0.2515944807308122  0.7484036938013101  0.7484064740295536  1.0000
  O   O5        1.0  0.2515951126374773  0.7484027498645927  0.25159370934889  1.0000
  O   O6        1.0  0.7484037563719836  0.2515974927998048  0.7484068571084852  1.0000
