data_image0
_chemical_formula_structural       Pt2CuBr6
_chemical_formula_sum              "Pt2 Cu1 Br6"
_cell_length_a       6.884518533209456
_cell_length_b       6.88451822252322
_cell_length_c       6.8845183392168945
_cell_angle_alpha    60.000001237339596
_cell_angle_beta     59.99999683999457
_cell_angle_gamma    59.99999401355556

_space_group_name_H-M_alt    "P 1"
_space_group_IT_number       1

loop_
  _space_group_symop_operation_xyz
  'x, y, z'

loop_
  _atom_site_type_symbol
  _atom_site_label
  _atom_site_symmetry_multiplicity
  _atom_site_fract_x
  _atom_site_fract_y
  _atom_site_fract_z
  _atom_site_occupancy
  Pt  Pt1       1.0  0.2499997902149921  0.24999950530650314  0.2500002825976959  1.0000
  Pt  Pt2       1.0  0.7499999239014178  0.7500002877876841  0.7499994964013094  1.0000
  Cu  Cu1       1.0  6.979277966088582e-09  4.4474604617619036e-08  9.133885689690369e-09  1.0000
  Br  Br1       1.0  0.24908698605206536  0.2490868350346454  0.750913159331097  1.0000
  Br  Br2       1.0  0.750913148793273  0.7509132355810679  0.24908693580344582  1.0000
  Br  Br3       1.0  0.7509133504579698  0.2490866711784564  0.24908682130581822  1.0000
  Br  Br4       1.0  0.2490867781028268  0.7509133478467162  0.7509132838833177  1.0000
  Br  Br5       1.0  0.24908672775789822  0.7509132942784484  0.24908677081794206  1.0000
  Br  Br6       1.0  0.7509132892909737  0.24908676744234576  0.7509132351461807  1.0000
