data_image0
_chemical_formula_structural       Pt2CoS6
_chemical_formula_sum              "Pt2 Co1 S6"
_cell_length_a       5.775759186904504
_cell_length_b       5.77575928292001
_cell_length_c       5.775759179871672
_cell_angle_alpha    60.00000087834699
_cell_angle_beta     60.00000039807879
_cell_angle_gamma    60.00000015030381

_space_group_name_H-M_alt    "P 1"
_space_group_IT_number       1

loop_
  _space_group_symop_operation_xyz
  'x, y, z'

loop_
  _atom_site_type_symbol
  _atom_site_label
  _atom_site_symmetry_multiplicity
  _atom_site_fract_x
  _atom_site_fract_y
  _atom_site_fract_z
  _atom_site_occupancy
  Pt  Pt1       1.0  0.24999996461375198  0.2500000124282317  0.2500000733086592  1.0000
  Pt  Pt2       1.0  0.7499998937615963  0.7499999715494573  0.7499999117527237  1.0000
  Co  Co1       1.0  2.9180983015438628e-08  0.9999999724336099  0.9999999732220917  1.0000
  S   S1        1.0  0.2613856958922518  0.2613856278156331  0.738614325593313  1.0000
  S   S2        1.0  0.7386143407565665  0.7386143731259871  0.2613857003592999  1.0000
  S   S3        1.0  0.7386143321631929  0.26138568968480763  0.26138564382227797  1.0000
  S   S4        1.0  0.26138567104285176  0.7386143875945076  0.7386143329808881  1.0000
  S   S5        1.0  0.261385678957677  0.7386143167046068  0.26138567570906485  1.0000
  S   S6        1.0  0.7386143924054958  0.26138564606816583  0.7386143537021684  1.0000
