data_image0
_chemical_formula_structural       Pt2CoBr6
_chemical_formula_sum              "Pt2 Co1 Br6"
_cell_length_a       6.891709672009161
_cell_length_b       6.891709687455859
_cell_length_c       6.891709834244664
_cell_angle_alpha    59.99999895418368
_cell_angle_beta     59.99999867936185
_cell_angle_gamma    59.99999897242201

_space_group_name_H-M_alt    "P 1"
_space_group_IT_number       1

loop_
  _space_group_symop_operation_xyz
  'x, y, z'

loop_
  _atom_site_type_symbol
  _atom_site_label
  _atom_site_symmetry_multiplicity
  _atom_site_fract_x
  _atom_site_fract_y
  _atom_site_fract_z
  _atom_site_occupancy
  Pt  Pt1       1.0  0.2500000154704124  0.2500000331014008  0.2499999947772927  1.0000
  Pt  Pt2       1.0  0.7499999777858104  0.7499999784595126  0.7500000529486  1.0000
  Co  Co1       1.0  0.9999999997125311  0.9999999857829777  7.252245714313445e-09  1.0000
  Br  Br1       1.0  0.24665464921005445  0.24665465310319928  0.7533453668954372  1.0000
  Br  Br2       1.0  0.7533453597179739  0.7533453566805861  0.2466546434117232  1.0000
  Br  Br3       1.0  0.753345359590286  0.24665464105421303  0.24665464534837853  1.0000
  Br  Br4       1.0  0.2466546565478895  0.7533453420726556  0.7533453253475302  1.0000
  Br  Br5       1.0  0.2466546340607484  0.7533453625435464  0.24665464088184919  1.0000
  Br  Br6       1.0  0.7533453480594056  0.2466546472402393  0.7533453262395182  1.0000
