data_image0
_chemical_formula_structural       Pt2CrF6
_chemical_formula_sum              "Pt2 Cr1 F6"
_cell_length_a       5.282279527429371
_cell_length_b       5.282279538465691
_cell_length_c       5.282279517305948
_cell_angle_alpha    59.999999343194084
_cell_angle_beta     59.99999909248147
_cell_angle_gamma    59.99999887162003

_space_group_name_H-M_alt    "P 1"
_space_group_IT_number       1

loop_
  _space_group_symop_operation_xyz
  'x, y, z'

loop_
  _atom_site_type_symbol
  _atom_site_label
  _atom_site_symmetry_multiplicity
  _atom_site_fract_x
  _atom_site_fract_y
  _atom_site_fract_z
  _atom_site_occupancy
  Pt  Pt1       1.0  0.24999997773787902  0.25000000785924464  0.2500000117031979  1.0000
  Pt  Pt2       1.0  0.7500000132996191  0.7500000653123814  0.7499999817717665  1.0000
  Cr  Cr1       1.0  2.828525582813775e-08  6.955774447332843e-09  0.999999991845095  1.0000
  F   F1        1.0  0.2519895585404848  0.25198959326954107  0.7480104326115321  1.0000
  F   F2        1.0  0.7480103976992928  0.7480103941141973  0.2519895795075513  1.0000
  F   F3        1.0  0.7480104372426649  0.2519895559578274  0.25198958101547636  1.0000
  F   F4        1.0  0.2519895824135478  0.7480103920098538  0.7480104285690283  1.0000
  F   F5        1.0  0.25198958085092277  0.7480104178142852  0.25198958653636255  1.0000
  F   F6        1.0  0.7480104228403538  0.2519895649322696  0.7480104155342954  1.0000
