data_image0
_chemical_formula_structural       Pt2CS6
_chemical_formula_sum              "Pt2 C1 S6"
_cell_length_a       5.681210823948541
_cell_length_b       5.68121077628243
_cell_length_c       5.681210696281664
_cell_angle_alpha    60.00000020418039
_cell_angle_beta     60.000000342178545
_cell_angle_gamma    59.99999995855794

_space_group_name_H-M_alt    "P 1"
_space_group_IT_number       1

loop_
  _space_group_symop_operation_xyz
  'x, y, z'

loop_
  _atom_site_type_symbol
  _atom_site_label
  _atom_site_symmetry_multiplicity
  _atom_site_fract_x
  _atom_site_fract_y
  _atom_site_fract_z
  _atom_site_occupancy
  Pt  Pt1       1.0  0.2499999941272611  0.24999992272302093  0.25000016386297  1.0000
  Pt  Pt2       1.0  0.7499999638180066  0.7500000311743983  0.7499999293210816  1.0000
  C   C1        1.0  0.9999999349814678  0.999999963351716  0.9999998448913896  1.0000
  S   S1        1.0  0.2491355930913423  0.2491356649107036  0.7508644020888803  1.0000
  S   S2        1.0  0.7508644195232553  0.7508644420471973  0.2491356030719588  1.0000
  S   S3        1.0  0.7508643373277288  0.24913562827472938  0.24913565250502753  1.0000
  S   S4        1.0  0.24913566547313784  0.7508644959294231  0.750864338378422  1.0000
  S   S5        1.0  0.24913560973635787  0.7508643155712952  0.2491356925436294  1.0000
  S   S6        1.0  0.7508644872002982  0.24913552622548943  0.7508643766339158  1.0000
