data_image0
_chemical_formula_structural       Pt2CuI6
_chemical_formula_sum              "Pt2 Cu1 I6"
_cell_length_a       7.2568350551736565
_cell_length_b       7.256834908963072
_cell_length_c       7.256835128447237
_cell_angle_alpha    59.99999891094751
_cell_angle_beta     59.99999952815896
_cell_angle_gamma    59.999998544337586

_space_group_name_H-M_alt    "P 1"
_space_group_IT_number       1

loop_
  _space_group_symop_operation_xyz
  'x, y, z'

loop_
  _atom_site_type_symbol
  _atom_site_label
  _atom_site_symmetry_multiplicity
  _atom_site_fract_x
  _atom_site_fract_y
  _atom_site_fract_z
  _atom_site_occupancy
  Pt  Pt1       1.0  0.25000000725817056  0.2500000170858327  0.25000000335439787  1.0000
  Pt  Pt2       1.0  0.7499998726218344  0.7499999736227371  0.7500001110548123  1.0000
  Cu  Cu1       1.0  1.1797424734531303e-08  0.9999999932491511  0.9999999836966001  1.0000
  I   I1        1.0  0.25477481896530274  0.2547747943262166  0.7452251931323284  1.0000
  I   I2        1.0  0.7452252231995508  0.7452252250734601  0.2547747665344229  1.0000
  I   I3        1.0  0.7452252063039221  0.25477482373542437  0.25477475885637607  1.0000
  I   I4        1.0  0.25477481742574065  0.7452251889134034  0.745225228561518  1.0000
  I   I5        1.0  0.25477483628665  0.7452251773363099  0.25477475346711165  1.0000
  I   I6        1.0  0.745225209270189  0.25477480324598584  0.7452252087542142  1.0000
