data_image0
_chemical_formula_structural       Pt2CO6
_chemical_formula_sum              "Pt2 C1 O6"
_cell_length_a       4.9701695519209235
_cell_length_b       4.970169857860316
_cell_length_c       4.970169849286844
_cell_angle_alpha    60.000001071608665
_cell_angle_beta     60.00000221663445
_cell_angle_gamma    60.00000523326968

_space_group_name_H-M_alt    "P 1"
_space_group_IT_number       1

loop_
  _space_group_symop_operation_xyz
  'x, y, z'

loop_
  _atom_site_type_symbol
  _atom_site_label
  _atom_site_symmetry_multiplicity
  _atom_site_fract_x
  _atom_site_fract_y
  _atom_site_fract_z
  _atom_site_occupancy
  Pt  Pt1       1.0  0.24998980047673572  0.2500223884948706  0.2499858523253552  1.0000
  Pt  Pt2       1.0  0.7499902980026971  0.7500225414486122  0.7499857803100188  1.0000
  C   C1        1.0  0.999990955270905  2.012258425119282e-05  0.99998740899941  1.0000
  O   O1        1.0  0.22246516455543677  0.22244942241669285  0.7775467635687436  1.0000
  O   O2        1.0  0.777546438371035  0.7775286293812897  0.2224665047960857  1.0000
  O   O3        1.0  0.7775448605228693  0.222448303532231  0.22246800165979044  1.0000
  O   O4        1.0  0.22246466572191484  0.7775292036794356  0.777547553160753  1.0000
  O   O5        1.0  0.22246407190593215  0.7775300365284842  0.22246560472122578  1.0000
  O   O6        1.0  0.777543631579982  0.2224492867919727  0.7775465551501072  1.0000
