data_image0
_chemical_formula_structural       Pt2CF6
_chemical_formula_sum              "Pt2 C1 F6"
_cell_length_a       5.227897947138645
_cell_length_b       5.227896069012275
_cell_length_c       5.227896796810509
_cell_angle_alpha    60.00000869418503
_cell_angle_beta     60.00000631961542
_cell_angle_gamma    60.000005876205044

_space_group_name_H-M_alt    "P 1"
_space_group_IT_number       1

loop_
  _space_group_symop_operation_xyz
  'x, y, z'

loop_
  _atom_site_type_symbol
  _atom_site_label
  _atom_site_symmetry_multiplicity
  _atom_site_fract_x
  _atom_site_fract_y
  _atom_site_fract_z
  _atom_site_occupancy
  Pt  Pt1       1.0  0.25000101005957387  0.24999911118962626  0.25000047563011174  1.0000
  Pt  Pt2       1.0  0.7500020039629534  0.749996323860446  0.7500020355099076  1.0000
  C   C1        1.0  7.060659831789378e-07  0.9999994588337696  0.9999991466855738  1.0000
  F   F1        1.0  0.21626206338362652  0.2162630372757592  0.7837369979840383  1.0000
  F   F2        1.0  0.7837369697693981  0.7837379593687418  0.21626218640126657  1.0000
  F   F3        1.0  0.7837364673900078  0.21626385236190532  0.2162629339597427  1.0000
  F   F4        1.0  0.21626179210648194  0.7837384116891558  0.7837369656966842  1.0000
  F   F5        1.0  0.2162625394641229  0.7837378227372375  0.21626238856373425  1.0000
  F   F6        1.0  0.7837367456749356  0.21626374318606384  0.7837369762490787  1.0000
