data_image0
_chemical_formula_structural       Pt2CaCl6
_chemical_formula_sum              "Pt2 Ca1 Cl6"
_cell_length_a       6.725244423597138
_cell_length_b       6.725244498603871
_cell_length_c       6.725244635740932
_cell_angle_alpha    60.00000115663191
_cell_angle_beta     59.99999929733002
_cell_angle_gamma    59.99999871824114

_space_group_name_H-M_alt    "P 1"
_space_group_IT_number       1

loop_
  _space_group_symop_operation_xyz
  'x, y, z'

loop_
  _atom_site_type_symbol
  _atom_site_label
  _atom_site_symmetry_multiplicity
  _atom_site_fract_x
  _atom_site_fract_y
  _atom_site_fract_z
  _atom_site_occupancy
  Pt  Pt1       1.0  0.24999954961071755  0.2500002727266232  0.250000012957193  1.0000
  Pt  Pt2       1.0  0.7499998244325773  0.7499997947127938  0.7499997620687013  1.0000
  Ca  Ca1       1.0  1.1914599425223825e-08  5.463348640148797e-09  7.755324199503833e-08  1.0000
  Cl  Cl1       1.0  0.26776804628679785  0.26776816715900925  0.7322318715409162  1.0000
  Cl  Cl2       1.0  0.7322320455517843  0.7322318948170552  0.26776808112859024  1.0000
  Cl  Cl3       1.0  0.7322320940309569  0.2677679685561122  0.2677681685671058  1.0000
  Cl  Cl4       1.0  0.267768177312357  0.7322318639593698  0.7322320544245584  1.0000
  Cl  Cl5       1.0  0.26776816868883324  0.7322319314027464  0.2677681059774533  1.0000
  Cl  Cl6       1.0  0.732232076480341  0.26776810325657996  0.7322318669534721  1.0000
