data_image0
_chemical_formula_structural       Pt2CrBr6
_chemical_formula_sum              "Pt2 Cr1 Br6"
_cell_length_a       6.886852145205611
_cell_length_b       6.886852252392556
_cell_length_c       6.886852414366848
_cell_angle_alpha    60.00000102142111
_cell_angle_beta     60.000002944750506
_cell_angle_gamma    59.99999961122034

_space_group_name_H-M_alt    "P 1"
_space_group_IT_number       1

loop_
  _space_group_symop_operation_xyz
  'x, y, z'

loop_
  _atom_site_type_symbol
  _atom_site_label
  _atom_site_symmetry_multiplicity
  _atom_site_fract_x
  _atom_site_fract_y
  _atom_site_fract_z
  _atom_site_occupancy
  Pt  Pt1       1.0  0.2500001600652476  0.2500000447563997  0.2499998455145581  1.0000
  Pt  Pt2       1.0  0.7500001022032698  0.7499998799606933  0.7500000632402601  1.0000
  Cr  Cr1       1.0  0.9999999117814177  0.9999999075241771  0.9999997767060937  1.0000
  Br  Br1       1.0  0.2466553115472133  0.24665536543533173  0.7533445893618917  1.0000
  Br  Br2       1.0  0.7533447511098557  0.7533447104441681  0.24665528553575686  1.0000
  Br  Br3       1.0  0.7533445502041124  0.24665537442200985  0.24665541083373702  1.0000
  Br  Br4       1.0  0.24665521442629906  0.7533448259441816  0.7533448005851365  1.0000
  Br  Br5       1.0  0.2466552238999935  0.7533446672243225  0.24665540082359524  1.0000
  Br  Br6       1.0  0.7533447733698013  0.2466552325954394  0.7533448285763414  1.0000
