data_image0
_chemical_formula_structural       Pt2FeBr6
_chemical_formula_sum              "Pt2 Fe1 Br6"
_cell_length_a       7.075008352686714
_cell_length_b       7.075008487546506
_cell_length_c       7.075008271133704
_cell_angle_alpha    60.00000162067335
_cell_angle_beta     60.00000142574335
_cell_angle_gamma    59.99999798526066

_space_group_name_H-M_alt    "P 1"
_space_group_IT_number       1

loop_
  _space_group_symop_operation_xyz
  'x, y, z'

loop_
  _atom_site_type_symbol
  _atom_site_label
  _atom_site_symmetry_multiplicity
  _atom_site_fract_x
  _atom_site_fract_y
  _atom_site_fract_z
  _atom_site_occupancy
  Pt  Pt1       1.0  0.25000017421779486  0.24999994361111239  0.25000012716769904  1.0000
  Pt  Pt2       1.0  0.7499999737583585  0.750000057605632  0.7500001227769642  1.0000
  Fe  Fe1       1.0  2.3081141083196394e-09  0.9999999930756553  0.9999999061951534  1.0000
  Br  Br1       1.0  0.22587915263599728  0.22587913293067094  0.7741207496314437  1.0000
  Br  Br2       1.0  0.7741208538438881  0.7741208423197862  0.2258790794514463  1.0000
  Br  Br3       1.0  0.7741209011737161  0.225879069580445  0.22587904313763263  1.0000
  Br  Br4       1.0  0.2258789817118667  0.7741209679891163  0.7741210427310012  1.0000
  Br  Br5       1.0  0.22587904959766045  0.7741208694282039  0.22587898663159608  1.0000
  Br  Br6       1.0  0.7741209173162078  0.22587912659528814  0.7741209380667654  1.0000
