data_image0
_chemical_formula_structural       Pt2FeSe6
_chemical_formula_sum              "Pt2 Fe1 Se6"
_cell_length_a       6.09134400592474
_cell_length_b       6.091343676363884
_cell_length_c       6.091343696999933
_cell_angle_alpha    59.999995593653814
_cell_angle_beta     59.99999298307957
_cell_angle_gamma    59.99999575883386

_space_group_name_H-M_alt    "P 1"
_space_group_IT_number       1

loop_
  _space_group_symop_operation_xyz
  'x, y, z'

loop_
  _atom_site_type_symbol
  _atom_site_label
  _atom_site_symmetry_multiplicity
  _atom_site_fract_x
  _atom_site_fract_y
  _atom_site_fract_z
  _atom_site_occupancy
  Pt  Pt1       1.0  0.250002049224646  0.24999883567681963  0.24999940192071346  1.0000
  Pt  Pt2       1.0  0.7500013180838251  0.7499983367054215  0.7499980443459807  1.0000
  Fe  Fe1       1.0  0.9999999253963567  2.010631768373744e-07  1.3377110031936324e-07  1.0000
  Se  Se1       1.0  0.2722442909428614  0.2722452341068377  0.7277552654185014  1.0000
  Se  Se2       1.0  0.7277545078798294  0.727755782603352  0.2722457770248786  1.0000
  Se  Se3       1.0  0.727754632268763  0.2722451976348295  0.2722447816014316  1.0000
  Se  Se4       1.0  0.2722448253963276  0.7277557306075731  0.7277552221262789  1.0000
  Se  Se5       1.0  0.2722438564572982  0.7277552994989349  0.27224560816699306  1.0000
  Se  Se6       1.0  0.7277546028978406  0.2722453934995353  0.7277557461659687  1.0000
