data_image0
_chemical_formula_structural       Pt2FeCl6
_chemical_formula_sum              "Pt2 Fe1 Cl6"
_cell_length_a       6.514701533848523
_cell_length_b       6.514701555445611
_cell_length_c       6.514701618007927
_cell_angle_alpha    59.999997205615045
_cell_angle_beta     59.99999706434411
_cell_angle_gamma    59.999997185298874

_space_group_name_H-M_alt    "P 1"
_space_group_IT_number       1

loop_
  _space_group_symop_operation_xyz
  'x, y, z'

loop_
  _atom_site_type_symbol
  _atom_site_label
  _atom_site_symmetry_multiplicity
  _atom_site_fract_x
  _atom_site_fract_y
  _atom_site_fract_z
  _atom_site_occupancy
  Pt  Pt1       1.0  0.24999992307870544  0.24999986292502704  0.2500001176873051  1.0000
  Pt  Pt2       1.0  0.7500000361360959  0.7499999685291957  0.7499998440011003  1.0000
  Fe  Fe1       1.0  2.993512336212792e-08  0.9999999793203208  0.9999999600675142  1.0000
  Cl  Cl1       1.0  0.24116369293561038  0.24116369551884953  0.7588362785729875  1.0000
  Cl  Cl2       1.0  0.7588362956551117  0.7588363615318753  0.241163615493801  1.0000
  Cl  Cl3       1.0  0.7588363203996467  0.2411636720040358  0.24116380223395814  1.0000
  Cl  Cl4       1.0  0.24116361988630852  0.7588364395658401  0.7588363205090854  1.0000
  Cl  Cl5       1.0  0.24116367077981896  0.7588363739948406  0.24116372705245542  1.0000
  Cl  Cl6       1.0  0.7588364318930301  0.24116364921640407  0.7588363110917743  1.0000
