data_image0
_chemical_formula_structural       Pt2GeCl6
_chemical_formula_sum              "Pt2 Ge1 Cl6"
_cell_length_a       6.471809363052165
_cell_length_b       6.471809475643649
_cell_length_c       6.471809112644082
_cell_angle_alpha    60.000000889070854
_cell_angle_beta     60.00000091305498
_cell_angle_gamma    59.99999869542001

_space_group_name_H-M_alt    "P 1"
_space_group_IT_number       1

loop_
  _space_group_symop_operation_xyz
  'x, y, z'

loop_
  _atom_site_type_symbol
  _atom_site_label
  _atom_site_symmetry_multiplicity
  _atom_site_fract_x
  _atom_site_fract_y
  _atom_site_fract_z
  _atom_site_occupancy
  Pt  Pt1       1.0  0.2500000484756327  0.2499998184925256  0.24999999039745074  1.0000
  Pt  Pt2       1.0  0.7500000888301139  0.7499998661349624  0.7500000089397061  1.0000
  Ge  Ge1       1.0  7.574655051169516e-08  5.109561708668544e-08  0.9999999906596208  1.0000
  Cl  Cl1       1.0  0.24731697747288578  0.24731704962845508  0.7526829881843462  1.0000
  Cl  Cl2       1.0  0.7526829680543797  0.7526828677679703  0.24731704782861233  1.0000
  Cl  Cl3       1.0  0.7526828539556976  0.24731719279220427  0.24731709006739086  1.0000
  Cl  Cl4       1.0  0.24731719083422524  0.7526829460185687  0.7526829061297774  1.0000
  Cl  Cl5       1.0  0.2473169521313631  0.7526831003561502  0.24731705400473253  1.0000
  Cl  Cl6       1.0  0.7526828398771922  0.24731713307614767  0.752682905385132  1.0000
