data_image0
_chemical_formula_structural       Pt2GeS6
_chemical_formula_sum              "Pt2 Ge1 S6"
_cell_length_a       5.770469916574088
_cell_length_b       5.7704698018631335
_cell_length_c       5.77046987031082
_cell_angle_alpha    59.99999981175683
_cell_angle_beta     60.00000005555033
_cell_angle_gamma    59.99999968068112

_space_group_name_H-M_alt    "P 1"
_space_group_IT_number       1

loop_
  _space_group_symop_operation_xyz
  'x, y, z'

loop_
  _atom_site_type_symbol
  _atom_site_label
  _atom_site_symmetry_multiplicity
  _atom_site_fract_x
  _atom_site_fract_y
  _atom_site_fract_z
  _atom_site_occupancy
  Pt  Pt1       1.0  0.2500000808616746  0.2500000186326015  0.24999992682052774  1.0000
  Pt  Pt2       1.0  0.750000017902029  0.7500000155715336  0.7499998436477711  1.0000
  Ge  Ge1       1.0  0.9999999798681045  6.367305837137924e-09  0.9999999999504503  1.0000
  S   S1        1.0  0.27299070706978457  0.2729907380808058  0.7270092912231442  1.0000
  S   S2        1.0  0.7270092345611254  0.7270092812662828  0.27299079572390544  1.0000
  S   S3        1.0  0.7270091911029632  0.2729907336163033  0.2729907812074643  1.0000
  S   S4        1.0  0.2729908375442187  0.7270092347923383  0.7270092755699448  1.0000
  S   S5        1.0  0.27299074540965906  0.7270092079127431  0.27299079085423056  1.0000
  S   S6        1.0  0.7270092036601876  0.27299077110807474  0.7270092900079912  1.0000
