data_image0
_chemical_formula_structural       Pt2GeO6
_chemical_formula_sum              "Pt2 Ge1 O6"
_cell_length_a       5.18740284939378
_cell_length_b       5.187403363209935
_cell_length_c       5.1874030451373345
_cell_angle_alpha    60.00000121875481
_cell_angle_beta     60.00000269636868
_cell_angle_gamma    60.00000128065262

_space_group_name_H-M_alt    "P 1"
_space_group_IT_number       1

loop_
  _space_group_symop_operation_xyz
  'x, y, z'

loop_
  _atom_site_type_symbol
  _atom_site_label
  _atom_site_symmetry_multiplicity
  _atom_site_fract_x
  _atom_site_fract_y
  _atom_site_fract_z
  _atom_site_occupancy
  Pt  Pt1       1.0  0.24999693647946258  0.250001916193269  0.2500012942857125  1.0000
  Pt  Pt2       1.0  0.7499981920971213  0.7500009297829929  0.750000964269332  1.0000
  Ge  Ge1       1.0  0.9999998578966455  5.902494985249419e-08  4.925018521325842e-08  1.0000
  O   O1        1.0  0.25121547235364294  0.25121477236859024  0.748784770791285  1.0000
  O   O2        1.0  0.7487862016388159  0.7487837364544423  0.25121485107389424  1.0000
  O   O3        1.0  0.7487853508970524  0.2512149285576474  0.2512150008572561  1.0000
  O   O4        1.0  0.2512158658759566  0.7487846781294057  0.7487849194923636  1.0000
  O   O5        1.0  0.25121584772871725  0.7487844729007034  0.25121441105674147  1.0000
  O   O6        1.0  0.7487862468291244  0.2512145104829278  0.7487837049124232  1.0000
