data_image0
_chemical_formula_structural       Pt2GeI6
_chemical_formula_sum              "Pt2 Ge1 I6"
_cell_length_a       7.527578324335331
_cell_length_b       7.527578171568053
_cell_length_c       7.527578193134174
_cell_angle_alpha    59.99999977944032
_cell_angle_beta     59.99999953766033
_cell_angle_gamma    59.99999864496354

_space_group_name_H-M_alt    "P 1"
_space_group_IT_number       1

loop_
  _space_group_symop_operation_xyz
  'x, y, z'

loop_
  _atom_site_type_symbol
  _atom_site_label
  _atom_site_symmetry_multiplicity
  _atom_site_fract_x
  _atom_site_fract_y
  _atom_site_fract_z
  _atom_site_occupancy
  Pt  Pt1       1.0  0.2499999887809819  0.25000003659589315  0.250000005493804  1.0000
  Pt  Pt2       1.0  0.7499999381601387  0.7500000056590065  0.7499999059535011  1.0000
  Ge  Ge1       1.0  0.9999999990083768  0.9999999983729895  0.9999999959955229  1.0000
  I   I1        1.0  0.26252956617732137  0.2625294813442045  0.7374704456146421  1.0000
  I   I2        1.0  0.7374704594344319  0.7374704811871797  0.2625296184298215  1.0000
  I   I3        1.0  0.737470477648302  0.26252952996221685  0.2625295345488255  1.0000
  I   I4        1.0  0.262529581524475  0.7374704423312299  0.7374704892358155  1.0000
  I   I5        1.0  0.26252953572918636  0.7374704427709944  0.2625295497245885  1.0000
  I   I6        1.0  0.73747046278169  0.2625295734517369  0.7374704598427365  1.0000
