data_image0
_chemical_formula_structural       Pt2HgCl6
_chemical_formula_sum              "Pt2 Hg1 Cl6"
_cell_length_a       6.608917140250651
_cell_length_b       6.608916937970793
_cell_length_c       6.608917097024315
_cell_angle_alpha    59.999998205890535
_cell_angle_beta     59.999998916968444
_cell_angle_gamma    59.99999692554526

_space_group_name_H-M_alt    "P 1"
_space_group_IT_number       1

loop_
  _space_group_symop_operation_xyz
  'x, y, z'

loop_
  _atom_site_type_symbol
  _atom_site_label
  _atom_site_symmetry_multiplicity
  _atom_site_fract_x
  _atom_site_fract_y
  _atom_site_fract_z
  _atom_site_occupancy
  Pt  Pt1       1.0  0.2500000408430349  0.2499997919652101  0.25000013395223664  1.0000
  Pt  Pt2       1.0  0.7500000935381551  0.7500001023384176  0.74999992149046  1.0000
  Hg  Hg1       1.0  1.815919665513458e-08  5.559511170376716e-08  0.9999998314825194  1.0000
  Cl  Cl1       1.0  0.2684758685101521  0.2684759582172864  0.7315239522978996  1.0000
  Cl  Cl2       1.0  0.7315240103912333  0.7315240787804662  0.26847586750794994  1.0000
  Cl  Cl3       1.0  0.7315240373674463  0.26847581659360154  0.2684760070613363  1.0000
  Cl  Cl4       1.0  0.2684757802218957  0.7315243204753503  0.7315241096043388  1.0000
  Cl  Cl5       1.0  0.2684759508946683  0.7315240992068387  0.26847595846527184  1.0000
  Cl  Cl6       1.0  0.7315241960347745  0.2684757784182547  0.7315242291697843  1.0000
