data_image0
_chemical_formula_structural       Pt2HgI6
_chemical_formula_sum              "Pt2 Hg1 I6"
_cell_length_a       7.610996671418858
_cell_length_b       7.6109964980029625
_cell_length_c       7.610996497722628
_cell_angle_alpha    59.9999991003893
_cell_angle_beta     59.999999632711436
_cell_angle_gamma    59.99999946341106

_space_group_name_H-M_alt    "P 1"
_space_group_IT_number       1

loop_
  _space_group_symop_operation_xyz
  'x, y, z'

loop_
  _atom_site_type_symbol
  _atom_site_label
  _atom_site_symmetry_multiplicity
  _atom_site_fract_x
  _atom_site_fract_y
  _atom_site_fract_z
  _atom_site_occupancy
  Pt  Pt1       1.0  0.25000004624628064  0.2500000515905965  0.24999993295609124  1.0000
  Pt  Pt2       1.0  0.7500000111328813  0.7499999777621983  0.7500000129288066  1.0000
  Hg  Hg1       1.0  0.9999999917858384  6.43671209941312e-09  4.293315353137831e-08  1.0000
  I   I1        1.0  0.27066798504380474  0.27066803445166887  0.7293320048076164  1.0000
  I   I2        1.0  0.7293319640210338  0.7293319466257826  0.2706680338248883  1.0000
  I   I3        1.0  0.7293319621085622  0.27066804086600726  0.270667994569666  1.0000
  I   I4        1.0  0.2706680774803209  0.7293318871085676  0.7293319754244953  1.0000
  I   I5        1.0  0.27066805386164905  0.7293319735247001  0.270668034372863  1.0000
  I   I6        1.0  0.7293319095306011  0.2706680783565874  0.7293319827162319  1.0000
