data_image0
_chemical_formula_structural       Pt2HgF6
_chemical_formula_sum              "Pt2 Hg1 F6"
_cell_length_a       5.454571862714526
_cell_length_b       5.454573037114923
_cell_length_c       5.454572224033762
_cell_angle_alpha    60.00000237106281
_cell_angle_beta     59.99999501277606
_cell_angle_gamma    60.00000120993264

_space_group_name_H-M_alt    "P 1"
_space_group_IT_number       1

loop_
  _space_group_symop_operation_xyz
  'x, y, z'

loop_
  _atom_site_type_symbol
  _atom_site_label
  _atom_site_symmetry_multiplicity
  _atom_site_fract_x
  _atom_site_fract_y
  _atom_site_fract_z
  _atom_site_occupancy
  Pt  Pt1       1.0  0.24999903135457507  0.2500012507622807  0.2499999676185715  1.0000
  Pt  Pt2       1.0  0.7500008268709608  0.7499987586191343  0.7500008174512405  1.0000
  Hg  Hg1       1.0  2.7028606068298675e-08  0.9999999887732279  2.3265596351789474e-08  1.0000
  F   F1        1.0  0.27071172185515585  0.2707124794662551  0.7292877978091951  1.0000
  F   F2        1.0  0.7292882531653625  0.7292875478780092  0.2707118437203128  1.0000
  F   F3        1.0  0.729288109602354  0.27071261782635064  0.2707115335179813  1.0000
  F   F4        1.0  0.27071176788843715  0.7292874544249954  0.7292883396551761  1.0000
  F   F5        1.0  0.27071203268064514  0.7292876133266526  0.2707121282131255  1.0000
  F   F6        1.0  0.7292882522498062  0.27071225908816515  0.7292875439922715  1.0000
