data_image0
_chemical_formula_structural       Pt2HgBr6
_chemical_formula_sum              "Pt2 Hg1 Br6"
_cell_length_a       7.104159772401293
_cell_length_b       7.104159765254658
_cell_length_c       7.104159793737123
_cell_angle_alpha    59.99999908276863
_cell_angle_beta     59.99999993114862
_cell_angle_gamma    60.00000009067315

_space_group_name_H-M_alt    "P 1"
_space_group_IT_number       1

loop_
  _space_group_symop_operation_xyz
  'x, y, z'

loop_
  _atom_site_type_symbol
  _atom_site_label
  _atom_site_symmetry_multiplicity
  _atom_site_fract_x
  _atom_site_fract_y
  _atom_site_fract_z
  _atom_site_occupancy
  Pt  Pt1       1.0  0.24999996567597774  0.2499999044325199  0.25000007240750244  1.0000
  Pt  Pt2       1.0  0.7499999903593331  0.7500000184425051  0.7500000348758449  1.0000
  Hg  Hg1       1.0  2.512752539255798e-09  0.9999999534524656  7.128430103934792e-08  1.0000
  Br  Br1       1.0  0.2644430876083423  0.2644431015822527  0.7355568738114009  1.0000
  Br  Br2       1.0  0.7355569318479723  0.7355569333516515  0.2644430598668183  1.0000
  Br  Br3       1.0  0.7355568915295406  0.26444313609597675  0.26444305866039314  1.0000
  Br  Br4       1.0  0.2644431169265371  0.735556907457841  0.7355568846537439  1.0000
  Br  Br5       1.0  0.2644431059920436  0.73555692032236  0.2644431042731092  1.0000
  Br  Br6       1.0  0.7355569106895626  0.2644431180595097  0.7355568346989855  1.0000
