data_image0
_chemical_formula_structural       Pt2InBr6
_chemical_formula_sum              "Pt2 In1 Br6"
_cell_length_a       7.085086524855194
_cell_length_b       7.085087020280876
_cell_length_c       7.085086701490799
_cell_angle_alpha    60.00000213621484
_cell_angle_beta     60.000000678035896
_cell_angle_gamma    60.00000113190067

_space_group_name_H-M_alt    "P 1"
_space_group_IT_number       1

loop_
  _space_group_symop_operation_xyz
  'x, y, z'

loop_
  _atom_site_type_symbol
  _atom_site_label
  _atom_site_symmetry_multiplicity
  _atom_site_fract_x
  _atom_site_fract_y
  _atom_site_fract_z
  _atom_site_occupancy
  Pt  Pt1       1.0  0.24999994297803  0.2500001405889855  0.2499999791114486  1.0000
  Pt  Pt2       1.0  0.7500000179782496  0.7499999377523557  0.749999973317755  1.0000
  In  In1       1.0  0.9999999929217055  0.9999999723420231  3.7127950115100724e-08  1.0000
  Br  Br1       1.0  0.2617828372928759  0.2617828007553826  0.7382172047799538  1.0000
  Br  Br2       1.0  0.7382171758836376  0.7382171600395558  0.26178289463697607  1.0000
  Br  Br3       1.0  0.7382171725242411  0.26178286644856924  0.2617827653799068  1.0000
  Br  Br4       1.0  0.2617828604720772  0.7382171375619577  0.7382171656120399  1.0000
  Br  Br5       1.0  0.2617828401874283  0.7382171523261831  0.26178279258829196  1.0000
  Br  Br6       1.0  0.7382171501554529  0.2617828378553561  0.7382171892275119  1.0000
