data_image0
_chemical_formula_structural       Pt2IrO6
_chemical_formula_sum              "Pt2 Ir1 O6"
_cell_length_a       2.3091979569354906
_cell_length_b       3.7238899439542785
_cell_length_c       5.294608377486518
_cell_angle_alpha    28.136189761415704
_cell_angle_beta     56.65237251123672
_cell_angle_gamma    51.10895338641495

_space_group_name_H-M_alt    "P 1"
_space_group_IT_number       1

loop_
  _space_group_symop_operation_xyz
  'x, y, z'

loop_
  _atom_site_type_symbol
  _atom_site_label
  _atom_site_symmetry_multiplicity
  _atom_site_fract_x
  _atom_site_fract_y
  _atom_site_fract_z
  _atom_site_occupancy
  Pt  Pt1       1.0  0.2385939162905689  0.26553550921180813  0.939323990172573  1.0000
  Pt  Pt2       1.0  0.587287935146745  0.40906172334158103  0.27869954920865636  1.0000
  Ir  Ir1       1.0  0.8815852716551451  0.3640358006751066  0.40449775730006243  1.0000
  O   O1        1.0  0.11594095238385843  0.18795006288539215  0.6359745238034962  1.0000
  O   O2        1.0  0.8647459541131061  0.8343100791406179  0.4296039946007886  1.0000
  O   O3        1.0  0.3709036394049165  0.8725577568795488  0.07081002107425872  1.0000
  O   O4        1.0  0.839525667087882  0.8272605933958158  0.9132985148432265  1.0000
  O   O5        1.0  0.034646288412073636  0.368340600907868  0.9249600019454361  1.0000
  O   O6        1.0  0.5265869633377885  0.8034846520109261  0.10567793052250143  1.0000
