data_image0
_chemical_formula_structural       Pt2InF6
_chemical_formula_sum              "Pt2 In1 F6"
_cell_length_a       5.334499721645221
_cell_length_b       5.334499999855279
_cell_length_c       5.334499764609811
_cell_angle_alpha    60.000000857730484
_cell_angle_beta     59.99999986257992
_cell_angle_gamma    60.00000123606486

_space_group_name_H-M_alt    "P 1"
_space_group_IT_number       1

loop_
  _space_group_symop_operation_xyz
  'x, y, z'

loop_
  _atom_site_type_symbol
  _atom_site_label
  _atom_site_symmetry_multiplicity
  _atom_site_fract_x
  _atom_site_fract_y
  _atom_site_fract_z
  _atom_site_occupancy
  Pt  Pt1       1.0  0.24999985529330623  0.2500001936005909  0.2500000492127129  1.0000
  Pt  Pt2       1.0  0.7499999660368677  0.7499997634633777  0.7500002400042848  1.0000
  In  In1       1.0  1.0691646364503204e-08  6.887683091214259e-09  0.9999999930849253  1.0000
  F   F1        1.0  0.26686871175391325  0.2668687251057955  0.7331312591334637  1.0000
  F   F2        1.0  0.7331313306270606  0.7331312181828086  0.26686869774583455  1.0000
  F   F3        1.0  0.733131308802375  0.2668688758692635  0.26686856974304846  1.0000
  F   F4        1.0  0.2668687129792717  0.7331312396114182  0.7331313150890538  1.0000
  F   F5        1.0  0.2668687685681774  0.7331311879141937  0.2668686643938175  1.0000
  F   F6        1.0  0.7331313550393144  0.2668687714456711  0.7331312269652812  1.0000
