data_image0
_chemical_formula_structural       Pt2InCl6
_chemical_formula_sum              "Pt2 In1 Cl6"
_cell_length_a       6.582160451094713
_cell_length_b       6.582161247213896
_cell_length_c       6.582161076662693
_cell_angle_alpha    59.99999923723377
_cell_angle_beta     59.99999769438858
_cell_angle_gamma    59.99999875487135

_space_group_name_H-M_alt    "P 1"
_space_group_IT_number       1

loop_
  _space_group_symop_operation_xyz
  'x, y, z'

loop_
  _atom_site_type_symbol
  _atom_site_label
  _atom_site_symmetry_multiplicity
  _atom_site_fract_x
  _atom_site_fract_y
  _atom_site_fract_z
  _atom_site_occupancy
  Pt  Pt1       1.0  0.2500001394704634  0.2500000439119173  0.24999996177884032  1.0000
  Pt  Pt2       1.0  0.7499999667476623  0.7499999289191212  0.7499998054155917  1.0000
  In  In1       1.0  0.9999999921680409  0.9999999813929663  8.462461629946475e-08  1.0000
  Cl  Cl1       1.0  0.26325168129826065  0.26325176210505036  0.7367483471361856  1.0000
  Cl  Cl2       1.0  0.7367483406076266  0.7367482163080925  0.2632518118911379  1.0000
  Cl  Cl3       1.0  0.7367481725340141  0.2632517055124727  0.2632517910691073  1.0000
  Cl  Cl4       1.0  0.26325180089029543  0.7367482394080168  0.7367482524617714  1.0000
  Cl  Cl5       1.0  0.2632517532318298  0.7367482756528316  0.2632516673528326  1.0000
  Cl  Cl6       1.0  0.7367481406261521  0.263251855337984  0.736748289502371  1.0000
