data_image0
_chemical_formula_structural       Pt2IrS6
_chemical_formula_sum              "Pt2 Ir1 S6"
_cell_length_a       5.945092418920789
_cell_length_b       5.945092377014488
_cell_length_c       5.9450923380325245
_cell_angle_alpha    60.000000492853154
_cell_angle_beta     60.00000025107385
_cell_angle_gamma    60.00000018479134

_space_group_name_H-M_alt    "P 1"
_space_group_IT_number       1

loop_
  _space_group_symop_operation_xyz
  'x, y, z'

loop_
  _atom_site_type_symbol
  _atom_site_label
  _atom_site_symmetry_multiplicity
  _atom_site_fract_x
  _atom_site_fract_y
  _atom_site_fract_z
  _atom_site_occupancy
  Pt  Pt1       1.0  0.2499999705600224  0.2499999988520568  0.2500000290612852  1.0000
  Pt  Pt2       1.0  0.7500000142874094  0.7499999800754189  0.7500000188896652  1.0000
  Ir  Ir1       1.0  1.5891657616879965e-08  0.9999999814591547  0.9999999895501762  1.0000
  S   S1        1.0  0.2703411089011353  0.2703411250698878  0.7296589003232316  1.0000
  S   S2        1.0  0.7296588916999206  0.729658876518621  0.27034111496391267  1.0000
  S   S3        1.0  0.7296588778025802  0.2703411386676646  0.27034108765159487  1.0000
  S   S4        1.0  0.2703410706700735  0.7296589144231922  0.729658907763861  1.0000
  S   S5        1.0  0.27034112362693785  0.729658863198684  0.27034110580467274  1.0000
  S   S6        1.0  0.7296589317112792  0.27034111984897924  0.7296588392404642  1.0000
