data_image0
_chemical_formula_structural       Pt2MnSe6
_chemical_formula_sum              "Pt2 Mn1 Se6"
_cell_length_a       6.177235170285478
_cell_length_b       6.177234361836522
_cell_length_c       6.177234539602109
_cell_angle_alpha    60.00000059004458
_cell_angle_beta     60.000001249619054
_cell_angle_gamma    60.000000980963925

_space_group_name_H-M_alt    "P 1"
_space_group_IT_number       1

loop_
  _space_group_symop_operation_xyz
  'x, y, z'

loop_
  _atom_site_type_symbol
  _atom_site_label
  _atom_site_symmetry_multiplicity
  _atom_site_fract_x
  _atom_site_fract_y
  _atom_site_fract_z
  _atom_site_occupancy
  Pt  Pt1       1.0  0.2500002037298993  0.2500000177866951  0.24999985740908956  1.0000
  Pt  Pt2       1.0  0.7500002014374828  0.750000138615099  0.7499996082057806  1.0000
  Mn  Mn1       1.0  0.9999998770969517  1.3878725400715407e-07  3.091023806587916e-08  1.0000
  Se  Se1       1.0  0.27753979398957446  0.27753987222359616  0.7224601463030286  1.0000
  Se  Se2       1.0  0.7224601225432651  0.7224600621185787  0.2775399126294938  1.0000
  Se  Se3       1.0  0.7224600580524342  0.2775397628956455  0.2775400772701415  1.0000
  Se  Se4       1.0  0.2775400026614874  0.7224601258450083  0.7224600019830352  1.0000
  Se  Se5       1.0  0.27753986365053956  0.72245999949517  0.27754017049819735  1.0000
  Se  Se6       1.0  0.722459889953349  0.2775398852801271  0.7224601646612171  1.0000
