data_image0
_chemical_formula_structural       Pt2MgI6
_chemical_formula_sum              "Pt2 Mg1 I6"
_cell_length_a       7.5983097362759375
_cell_length_b       7.598309772983501
_cell_length_c       7.598309745804124
_cell_angle_alpha    59.99999942835603
_cell_angle_beta     59.999998870123285
_cell_angle_gamma    59.9999985701424

_space_group_name_H-M_alt    "P 1"
_space_group_IT_number       1

loop_
  _space_group_symop_operation_xyz
  'x, y, z'

loop_
  _atom_site_type_symbol
  _atom_site_label
  _atom_site_symmetry_multiplicity
  _atom_site_fract_x
  _atom_site_fract_y
  _atom_site_fract_z
  _atom_site_occupancy
  Pt  Pt1       1.0  0.24999999477663704  0.25000001380481396  0.2500000314498037  1.0000
  Pt  Pt2       1.0  0.7499999994661694  0.7499999914466301  0.7499999788408883  1.0000
  Mg  Mg1       1.0  6.768746870219322e-09  4.352035220404709e-08  0.999999973539368  1.0000
  I   I1        1.0  0.26420560897812645  0.264205586682745  0.7357943912743589  1.0000
  I   I2        1.0  0.7357943427452499  0.735794363765293  0.26420568083857343  1.0000
  I   I3        1.0  0.7357944266322431  0.264205594915693  0.26420558333873156  1.0000
  I   I4        1.0  0.2642056314529744  0.735794382934047  0.7357943929386203  1.0000
  I   I5        1.0  0.26420562888874416  0.7357943879068578  0.26420557529015587  1.0000
  I   I6        1.0  0.7357943615008602  0.2642056334632354  0.735794394649676  1.0000
