data_image0
_chemical_formula_structural       Pt2MnS6
_chemical_formula_sum              "Pt2 Mn1 S6"
_cell_length_a       5.748452604176547
_cell_length_b       5.748452429756505
_cell_length_c       5.748452308617098
_cell_angle_alpha    59.999999874531696
_cell_angle_beta     60.00000053712619
_cell_angle_gamma    59.99999939174599

_space_group_name_H-M_alt    "P 1"
_space_group_IT_number       1

loop_
  _space_group_symop_operation_xyz
  'x, y, z'

loop_
  _atom_site_type_symbol
  _atom_site_label
  _atom_site_symmetry_multiplicity
  _atom_site_fract_x
  _atom_site_fract_y
  _atom_site_fract_z
  _atom_site_occupancy
  Pt  Pt1       1.0  0.24999985218763035  0.24999984138749276  0.24999993299991205  1.0000
  Pt  Pt2       1.0  0.7499999738984334  0.7500001462873164  0.7499995245529509  1.0000
  Mn  Mn1       1.0  2.962601423045574e-09  0.9999999850860481  4.598644472374493e-08  1.0000
  S   S1        1.0  0.2663367937341656  0.2663368180188014  0.7336631468761067  1.0000
  S   S2        1.0  0.7336631535222851  0.7336632761842306  0.2663368109057809  1.0000
  S   S3        1.0  0.7336634341852593  0.266336515924448  0.26633706087885833  1.0000
  S   S4        1.0  0.2663368570943221  0.7336632693467261  0.7336632638086982  1.0000
  S   S5        1.0  0.2663367198771059  0.733663305738553  0.2663368973399312  1.0000
  S   S6        1.0  0.7336632083261104  0.26633683959802623  0.7336632931644097  1.0000
