data_image0
_chemical_formula_structural       Pt2MnCl6
_chemical_formula_sum              "Pt2 Mn1 Cl6"
_cell_length_a       6.487453927347327
_cell_length_b       6.487454181684808
_cell_length_c       6.487453688058286
_cell_angle_alpha    60.000002403846594
_cell_angle_beta     60.000000192434776
_cell_angle_gamma    60.00000103365744

_space_group_name_H-M_alt    "P 1"
_space_group_IT_number       1

loop_
  _space_group_symop_operation_xyz
  'x, y, z'

loop_
  _atom_site_type_symbol
  _atom_site_label
  _atom_site_symmetry_multiplicity
  _atom_site_fract_x
  _atom_site_fract_y
  _atom_site_fract_z
  _atom_site_occupancy
  Pt  Pt1       1.0  0.2499999878691348  0.24999986531394872  0.2500001584937461  1.0000
  Pt  Pt2       1.0  0.749999888126611  0.7499999451971758  0.7500001644116097  1.0000
  Mn  Mn1       1.0  2.6016782409615092e-08  0.9999999112702674  4.522940634409634e-08  1.0000
  Cl  Cl1       1.0  0.2460990225674561  0.2460990131113917  0.7539009464263595  1.0000
  Cl  Cl2       1.0  0.7539010554850707  0.7539011844123925  0.24609885381162397  1.0000
  Cl  Cl3       1.0  0.7539010167732353  0.2460989716956183  0.24609893816444287  1.0000
  Cl  Cl4       1.0  0.24609895813783528  0.7539010653595022  0.7539010416631434  1.0000
  Cl  Cl5       1.0  0.24609899808668223  0.7539010413845578  0.24609884372545215  1.0000
  Cl  Cl6       1.0  0.7539010341944722  0.2460990051098952  0.7539010225427105  1.0000
