data_image0
_chemical_formula_structural       Pt2MnF6
_chemical_formula_sum              "Pt2 Mn1 F6"
_cell_length_a       5.217169023780758
_cell_length_b       5.21716904987798
_cell_length_c       5.217169087742895
_cell_angle_alpha    59.99999990638199
_cell_angle_beta     59.999999580010716
_cell_angle_gamma    60.000000500833394

_space_group_name_H-M_alt    "P 1"
_space_group_IT_number       1

loop_
  _space_group_symop_operation_xyz
  'x, y, z'

loop_
  _atom_site_type_symbol
  _atom_site_label
  _atom_site_symmetry_multiplicity
  _atom_site_fract_x
  _atom_site_fract_y
  _atom_site_fract_z
  _atom_site_occupancy
  Pt  Pt1       1.0  0.2500000281716902  0.2499999964838376  0.24999999868012496  1.0000
  Pt  Pt2       1.0  0.7499999486770023  0.7500000716149805  0.749999988376206  1.0000
  Mn  Mn1       1.0  1.837744912111355e-08  0.9999999647870851  0.9999999969172431  1.0000
  F   F1        1.0  0.24732790217549797  0.2473279450858791  0.7526720636314955  1.0000
  F   F2        1.0  0.7526721483824018  0.7526720878000244  0.2473278850092059  1.0000
  F   F3        1.0  0.7526720472757396  0.24732794067429728  0.24732793337930684  1.0000
  F   F4        1.0  0.24732792000646617  0.7526720100481373  0.7526721343991938  1.0000
  F   F5        1.0  0.2473279186695661  0.7526720209191486  0.24732792750649554  1.0000
  F   F6        1.0  0.7526720629202508  0.24732795327856275  0.7526720772953502  1.0000
