data_image0
_chemical_formula_structural       Pt2MgBr6
_chemical_formula_sum              "Pt2 Mg1 Br6"
_cell_length_a       7.020384054983189
_cell_length_b       7.020383864730689
_cell_length_c       7.020384101013927
_cell_angle_alpha    59.99999944973297
_cell_angle_beta     60.00000023042804
_cell_angle_gamma    60.00000052442142

_space_group_name_H-M_alt    "P 1"
_space_group_IT_number       1

loop_
  _space_group_symop_operation_xyz
  'x, y, z'

loop_
  _atom_site_type_symbol
  _atom_site_label
  _atom_site_symmetry_multiplicity
  _atom_site_fract_x
  _atom_site_fract_y
  _atom_site_fract_z
  _atom_site_occupancy
  Pt  Pt1       1.0  0.24999996027507704  0.2499998159789633  0.2500003287977584  1.0000
  Pt  Pt2       1.0  0.7499999199718267  0.7500001841392787  0.7500000631355552  1.0000
  Mg  Mg1       1.0  1.0433095467849742e-08  2.7912886840768473e-08  0.9999999480652688  1.0000
  Br  Br1       1.0  0.2573244293384367  0.25732435707046836  0.7426755174529946  1.0000
  Br  Br2       1.0  0.7426756226471438  0.742675636069552  0.25732433343572936  1.0000
  Br  Br3       1.0  0.7426756294581062  0.257324339906459  0.2573243352998746  1.0000
  Br  Br4       1.0  0.2573242783338904  0.7426757108038885  0.7426755589004778  1.0000
  Br  Br5       1.0  0.2573243947653537  0.7426756806132534  0.25732432117692394  1.0000
  Br  Br6       1.0  0.7426757539146622  0.25732424448910707  0.7426755979999746  1.0000
