data_image0
_chemical_formula_structural       Pt2NbBr6
_chemical_formula_sum              "Pt2 Nb1 Br6"
_cell_length_a       7.079474025498896
_cell_length_b       7.079473935664578
_cell_length_c       7.079474031724592
_cell_angle_alpha    59.99999900486257
_cell_angle_beta     59.999999607204415
_cell_angle_gamma    59.99999826430295

_space_group_name_H-M_alt    "P 1"
_space_group_IT_number       1

loop_
  _space_group_symop_operation_xyz
  'x, y, z'

loop_
  _atom_site_type_symbol
  _atom_site_label
  _atom_site_symmetry_multiplicity
  _atom_site_fract_x
  _atom_site_fract_y
  _atom_site_fract_z
  _atom_site_occupancy
  Pt  Pt1       1.0  0.2500000742201706  0.25000000477982265  0.2499999819657051  1.0000
  Pt  Pt2       1.0  0.7499998651288811  0.7500000887292233  0.7500000126037351  1.0000
  Nb  Nb1       1.0  1.7678727205673468e-08  0.9999999567501446  0.9999999972476867  1.0000
  Br  Br1       1.0  0.250960088465099  0.25096004188635124  0.7490399300296873  1.0000
  Br  Br2       1.0  0.7490399424548173  0.7490399824229251  0.25096004205393085  1.0000
  Br  Br3       1.0  0.7490399361430978  0.25096000478024527  0.2509600732174526  1.0000
  Br  Br4       1.0  0.2509600744805514  0.7490399434092864  0.7490399583744464  1.0000
  Br  Br5       1.0  0.25096006206179583  0.7490399665691981  0.2509600060758029  1.0000
  Br  Br6       1.0  0.7490399469138235  0.2509600110302348  0.7490399960972828  1.0000
