data_image0
_chemical_formula_structural       Pt2NiBr6
_chemical_formula_sum              "Pt2 Ni1 Br6"
_cell_length_a       6.903238427293974
_cell_length_b       6.903238475329067
_cell_length_c       6.9032390501349035
_cell_angle_alpha    59.99999881483952
_cell_angle_beta     59.99999696360898
_cell_angle_gamma    59.99999247322814

_space_group_name_H-M_alt    "P 1"
_space_group_IT_number       1

loop_
  _space_group_symop_operation_xyz
  'x, y, z'

loop_
  _atom_site_type_symbol
  _atom_site_label
  _atom_site_symmetry_multiplicity
  _atom_site_fract_x
  _atom_site_fract_y
  _atom_site_fract_z
  _atom_site_occupancy
  Pt  Pt1       1.0  0.25000019819323843  0.25000041341712587  0.24999996576655908  1.0000
  Pt  Pt2       1.0  0.7499997217125614  0.7499997339896485  0.7500005784071326  1.0000
  Ni  Ni1       1.0  0.9999999721904094  0.9999999379044032  0.9999999812143975  1.0000
  Br  Br1       1.0  0.24331100568747716  0.24331091029163562  0.7566889680057053  1.0000
  Br  Br2       1.0  0.7566890007114969  0.7566890579249659  0.24331089532161704  1.0000
  Br  Br3       1.0  0.7566889526123297  0.2433110574300629  0.24331076845913369  1.0000
  Br  Br4       1.0  0.24331098189262276  0.7566890261069388  0.7566890195569728  1.0000
  Br  Br5       1.0  0.24331109717549473  0.7566889068757923  0.24331080671602928  1.0000
  Br  Br6       1.0  0.7566890634679655  0.24331095489120125  0.7566890109849221  1.0000
