data_image0
_chemical_formula_structural       Pt2NbI6
_chemical_formula_sum              "Pt2 Nb1 I6"
_cell_length_a       7.628687056670536
_cell_length_b       7.6286870448036925
_cell_length_c       7.628687041781148
_cell_angle_alpha    60.0000000364529
_cell_angle_beta     60.00000021109915
_cell_angle_gamma    59.99999972277286

_space_group_name_H-M_alt    "P 1"
_space_group_IT_number       1

loop_
  _space_group_symop_operation_xyz
  'x, y, z'

loop_
  _atom_site_type_symbol
  _atom_site_label
  _atom_site_symmetry_multiplicity
  _atom_site_fract_x
  _atom_site_fract_y
  _atom_site_fract_z
  _atom_site_occupancy
  Pt  Pt1       1.0  0.24999999045439744  0.25000000695516666  0.25000000543197265  1.0000
  Pt  Pt2       1.0  0.7499999999542714  0.7500000032055887  0.7500000160737005  1.0000
  Nb  Nb1       1.0  4.984220073818258e-09  3.210892943579413e-09  0.999999961820563  1.0000
  I   I1        1.0  0.25426331031884325  0.25426328757144395  0.7457366972152952  1.0000
  I   I2        1.0  0.7457366866952454  0.7457366936912749  0.2542633013548057  1.0000
  I   I3        1.0  0.7457366978167581  0.25426330039271006  0.2542633027096506  1.0000
  I   I4        1.0  0.2542632816292363  0.7457367290334029  0.7457367080904731  1.0000
  I   I5        1.0  0.25426330339273884  0.7457367115155563  0.2542632873484677  1.0000
  I   I6        1.0  0.7457367254993852  0.25426326493082296  0.7457367225967749  1.0000
