data_image0
_chemical_formula_structural       Pt2NbCl6
_chemical_formula_sum              "Pt2 Nb1 Cl6"
_cell_length_a       6.630252311304925
_cell_length_b       6.630252039230002
_cell_length_c       6.630252175213724
_cell_angle_alpha    60.000000901213724
_cell_angle_beta     60.00000283211014
_cell_angle_gamma    60.000001577366206

_space_group_name_H-M_alt    "P 1"
_space_group_IT_number       1

loop_
  _space_group_symop_operation_xyz
  'x, y, z'

loop_
  _atom_site_type_symbol
  _atom_site_label
  _atom_site_symmetry_multiplicity
  _atom_site_fract_x
  _atom_site_fract_y
  _atom_site_fract_z
  _atom_site_occupancy
  Pt  Pt1       1.0  0.249999985900351  0.25000009381064  0.2500001168736682  1.0000
  Pt  Pt2       1.0  0.7500001121963236  0.7499999119904999  0.7500001624793785  1.0000
  Nb  Nb1       1.0  0.9999999740697084  2.031927695776967e-08  0.9999999273935941  1.0000
  Cl  Cl1       1.0  0.25238719609624904  0.2523872130636477  0.7476127172923327  1.0000
  Cl  Cl2       1.0  0.7476127495698575  0.7476127798070354  0.25238716964617236  1.0000
  Cl  Cl3       1.0  0.7476128146950205  0.2523871350058594  0.2523872223191437  1.0000
  Cl  Cl4       1.0  0.2523871421599735  0.747612819073476  0.7476127915384606  1.0000
  Cl  Cl5       1.0  0.25238719275167726  0.7476128179288568  0.25238713387824124  1.0000
  Cl  Cl6       1.0  0.7476128324981303  0.25238720264993464  0.7476127522026996  1.0000
