data_image0
_chemical_formula_structural       Pt2NiF6
_chemical_formula_sum              "Pt2 Ni1 F6"
_cell_length_a       5.134831544294045
_cell_length_b       5.134831541325008
_cell_length_c       5.134831476752292
_cell_angle_alpha    60.00000006733842
_cell_angle_beta     60.00000001018968
_cell_angle_gamma    59.999999889428686

_space_group_name_H-M_alt    "P 1"
_space_group_IT_number       1

loop_
  _space_group_symop_operation_xyz
  'x, y, z'

loop_
  _atom_site_type_symbol
  _atom_site_label
  _atom_site_symmetry_multiplicity
  _atom_site_fract_x
  _atom_site_fract_y
  _atom_site_fract_z
  _atom_site_occupancy
  Pt  Pt1       1.0  0.24999995134665884  0.25000003911834534  0.2499999841473175  1.0000
  Pt  Pt2       1.0  0.749999995645679  0.7500000028668516  0.7500000031501515  1.0000
  Ni  Ni1       1.0  1.4537034893727672e-09  2.3851705063248237e-09  0.9999999941855958  1.0000
  F   F1        1.0  0.25237411767200496  0.25237413170894735  0.7476258919938945  1.0000
  F   F2        1.0  0.74762589628431  0.7476258578024984  0.25237411921819886  1.0000
  F   F3        1.0  0.7476259064229148  0.2523741172133821  0.25237413361349614  1.0000
  F   F4        1.0  0.2523741325425839  0.7476258579870407  0.7476258819869346  1.0000
  F   F5        1.0  0.25237413254925833  0.7476258710751102  0.25237412053514774  1.0000
  F   F6        1.0  0.7476258716169586  0.2523741208215061  0.7476258749045734  1.0000
