data_image0
_chemical_formula_structural       Pt2NiCl6
_chemical_formula_sum              "Pt2 Ni1 Cl6"
_cell_length_a       6.413158858145612
_cell_length_b       6.413159132019143
_cell_length_c       6.413158948884324
_cell_angle_alpha    60.00000284493003
_cell_angle_beta     60.00000196878185
_cell_angle_gamma    60.000003148759056

_space_group_name_H-M_alt    "P 1"
_space_group_IT_number       1

loop_
  _space_group_symop_operation_xyz
  'x, y, z'

loop_
  _atom_site_type_symbol
  _atom_site_label
  _atom_site_symmetry_multiplicity
  _atom_site_fract_x
  _atom_site_fract_y
  _atom_site_fract_z
  _atom_site_occupancy
  Pt  Pt1       1.0  0.2499999067679679  0.24999977982963467  0.25000004725593195  1.0000
  Pt  Pt2       1.0  0.7499999733620357  0.7500002007803671  0.7500000570590849  1.0000
  Ni  Ni1       1.0  1.4386044174655534e-07  0.9999999465273607  0.999999940772455  1.0000
  Cl  Cl1       1.0  0.24830754335261512  0.24830740556597608  0.7516925447687006  1.0000
  Cl  Cl2       1.0  0.7516924838207238  0.7516925120226998  0.2483074302148515  1.0000
  Cl  Cl3       1.0  0.751692472929303  0.24830745797238798  0.2483075597328871  1.0000
  Cl  Cl4       1.0  0.2483074176386711  0.7516926047563115  0.7516925107781485  1.0000
  Cl  Cl5       1.0  0.24830758054372642  0.7516925488943182  0.24830739761115184  1.0000
  Cl  Cl6       1.0  0.7516924914396412  0.24830753675122777  0.7516925036841272  1.0000
