data_image0
_chemical_formula_structural       Pt2OsO6
_chemical_formula_sum              "Pt2 Os1 O6"
_cell_length_a       5.400827027341246
_cell_length_b       5.400826089558515
_cell_length_c       5.400826605296486
_cell_angle_alpha    60.0000041614621
_cell_angle_beta     60.000007328281015
_cell_angle_gamma    60.000003177944215

_space_group_name_H-M_alt    "P 1"
_space_group_IT_number       1

loop_
  _space_group_symop_operation_xyz
  'x, y, z'

loop_
  _atom_site_type_symbol
  _atom_site_label
  _atom_site_symmetry_multiplicity
  _atom_site_fract_x
  _atom_site_fract_y
  _atom_site_fract_z
  _atom_site_occupancy
  Pt  Pt1       1.0  0.24999951443846752  0.2500011359732462  0.2500014190551563  1.0000
  Pt  Pt2       1.0  0.7499968823880188  0.7500033172115667  0.7500027240926642  1.0000
  Os  Os1       1.0  9.074480758395794e-08  9.977876767762172e-08  0.9999999825040949  1.0000
  O   O1        1.0  0.2447549422596755  0.2447521366041105  0.7552454061404977  1.0000
  O   O2        1.0  0.7552469426553935  0.7552460826756255  0.2447520424787513  1.0000
  O   O3        1.0  0.7552461021901976  0.2447536756666087  0.24475313932203113  1.0000
  O   O4        1.0  0.24475398750997457  0.7552459269096632  0.7552468074981182  1.0000
  O   O5        1.0  0.24475426724017788  0.7552458483422696  0.24475277117433064  1.0000
  O   O6        1.0  0.7552472514387819  0.2447517314463487  0.7552457339274418  1.0000
