data_image0
_chemical_formula_structural       Pt2PdI6
_chemical_formula_sum              "Pt2 Pd1 I6"
_cell_length_a       7.363142473229306
_cell_length_b       7.363142300157897
_cell_length_c       7.363142263166895
_cell_angle_alpha    60.00000051568508
_cell_angle_beta     60.000000297329045
_cell_angle_gamma    59.999998661348144

_space_group_name_H-M_alt    "P 1"
_space_group_IT_number       1

loop_
  _space_group_symop_operation_xyz
  'x, y, z'

loop_
  _atom_site_type_symbol
  _atom_site_label
  _atom_site_symmetry_multiplicity
  _atom_site_fract_x
  _atom_site_fract_y
  _atom_site_fract_z
  _atom_site_occupancy
  Pt  Pt1       1.0  0.25000004060957276  0.24999998551601135  0.25000002962090645  1.0000
  Pt  Pt2       1.0  0.7500000302850386  0.7500000147651233  0.7500000471270348  1.0000
  Pd  Pd1       1.0  4.481749886510622e-09  6.653381536780035e-08  0.9999999889383023  1.0000
  I   I1        1.0  0.25717336005668745  0.257173345216716  0.7428266232681755  1.0000
  I   I2        1.0  0.7428265979426214  0.7428266267875475  0.2571733651663022  1.0000
  I   I3        1.0  0.7428266475868321  0.25717334172962064  0.2571733016083827  1.0000
  I   I4        1.0  0.2571733320821299  0.7428266452447511  0.7428266508507085  1.0000
  I   I5        1.0  0.2571733276964715  0.7428266537777577  0.2571733512863531  1.0000
  I   I6        1.0  0.7428266616671776  0.2571733182265057  0.7428266418376914  1.0000
