data_image0
_chemical_formula_structural       Pt2PdO6
_chemical_formula_sum              "Pt2 Pd1 O6"
_cell_length_a       4.729300601567609
_cell_length_b       4.729300791376519
_cell_length_c       4.729300698324156
_cell_angle_alpha    60.000000858053895
_cell_angle_beta     60.00000032190768
_cell_angle_gamma    60.00000212573033

_space_group_name_H-M_alt    "P 1"
_space_group_IT_number       1

loop_
  _space_group_symop_operation_xyz
  'x, y, z'

loop_
  _atom_site_type_symbol
  _atom_site_label
  _atom_site_symmetry_multiplicity
  _atom_site_fract_x
  _atom_site_fract_y
  _atom_site_fract_z
  _atom_site_occupancy
  Pt  Pt1       1.0  0.2500000185616563  0.24999999455297076  0.24999997263895213  1.0000
  Pt  Pt2       1.0  0.7499999639159507  0.7499999733001295  0.7500000176137391  1.0000
  Pd  Pd1       1.0  2.959694503618188e-07  3.133531459262277e-07  1.8853764754626628e-08  1.0000
  O   O1        1.0  0.2675467623027482  0.267546798913149  0.7324532200701789  1.0000
  O   O2        1.0  0.7324528867183552  0.7324528581764997  0.2675471430399473  1.0000
  O   O3        1.0  0.7324531702250425  0.267546838071278  0.2675468277570702  1.0000
  O   O4        1.0  0.26754705217146973  0.7324530106558369  0.7324529329409613  1.0000
  O   O5        1.0  0.26754686508807307  0.7324531330340366  0.2675468681238205  1.0000
  O   O6        1.0  0.7324529803854284  0.26754706271225726  0.7324530005631354  1.0000
