data_image0
_chemical_formula_structural       Pt2PO6
_chemical_formula_sum              "Pt2 P1 O6"
_cell_length_a       2.6169975662798493
_cell_length_b       3.107861529309444
_cell_length_c       2.8734963126536486
_cell_angle_alpha    50.75783103442402
_cell_angle_beta     51.730917545934346
_cell_angle_gamma    64.68588517287746

_space_group_name_H-M_alt    "P 1"
_space_group_IT_number       1

loop_
  _space_group_symop_operation_xyz
  'x, y, z'

loop_
  _atom_site_type_symbol
  _atom_site_label
  _atom_site_symmetry_multiplicity
  _atom_site_fract_x
  _atom_site_fract_y
  _atom_site_fract_z
  _atom_site_occupancy
  Pt  Pt1       1.0  0.19946283942441762  0.30755535036177606  0.7107497326486228  1.0000
  Pt  Pt2       1.0  0.5112708578397274  0.15498186649131274  0.7860243007954921  1.0000
  P   P1        1.0  0.7771819440992946  0.617143135436103  0.8519702359356724  1.0000
  O   O1        1.0  0.47137983630800756  0.013846109150654984  0.5785839807540876  1.0000
  O   O2        1.0  0.6738554409780694  0.5049021064586551  0.29180459554079136  1.0000
  O   O3        1.0  0.2698690409679525  0.6182888911032819  0.6134718247973894  1.0000
  O   O4        1.0  0.4245257199052296  0.27019341268097885  0.5103701437531836  1.0000
  O   O5        1.0  0.049181123192122124  0.4459428030995951  0.4909810303148995  1.0000
  O   O6        1.0  0.00536612056576824  0.19459413924838367  0.3165743345349544  1.0000
