data_image0
_chemical_formula_structural       Pt2PS6
_chemical_formula_sum              "Pt2 P1 S6"
_cell_length_a       5.704492026844107
_cell_length_b       5.7044921219508735
_cell_length_c       5.704492370138335
_cell_angle_alpha    60.000000513095
_cell_angle_beta     59.99999916049852
_cell_angle_gamma    59.99999957793013

_space_group_name_H-M_alt    "P 1"
_space_group_IT_number       1

loop_
  _space_group_symop_operation_xyz
  'x, y, z'

loop_
  _atom_site_type_symbol
  _atom_site_label
  _atom_site_symmetry_multiplicity
  _atom_site_fract_x
  _atom_site_fract_y
  _atom_site_fract_z
  _atom_site_occupancy
  Pt  Pt1       1.0  0.2500001076335873  0.24999994963973113  0.25000090017174514  1.0000
  Pt  Pt2       1.0  0.7500002397582834  0.7499990781522049  0.7500015953441458  1.0000
  P   P1        1.0  5.5512788011780866e-08  0.9999999549133554  1.4379229879676055e-07  1.0000
  S   S1        1.0  0.268100943874207  0.26810132170414747  0.7318987788126328  1.0000
  S   S2        1.0  0.7318990539066762  0.7318987731383816  0.26810047604429954  1.0000
  S   S3        1.0  0.7318986950336243  0.2681018972778247  0.2681001840600435  1.0000
  S   S4        1.0  0.26810089453273095  0.7318995072244416  0.7318982361663449  1.0000
  S   S5        1.0  0.2681012548012276  0.7318985135120687  0.2681007601434211  1.0000
  S   S6        1.0  0.7318987311504905  0.26810103384975187  0.7318989268798191  1.0000
