data_image0
_chemical_formula_structural       Pt2PdCl6
_chemical_formula_sum              "Pt2 Pd1 Cl6"
_cell_length_a       6.541234624690253
_cell_length_b       6.541234799723739
_cell_length_c       6.541234643106211
_cell_angle_alpha    59.99999953513385
_cell_angle_beta     59.99999754872834
_cell_angle_gamma    60.00000084122791

_space_group_name_H-M_alt    "P 1"
_space_group_IT_number       1

loop_
  _space_group_symop_operation_xyz
  'x, y, z'

loop_
  _atom_site_type_symbol
  _atom_site_label
  _atom_site_symmetry_multiplicity
  _atom_site_fract_x
  _atom_site_fract_y
  _atom_site_fract_z
  _atom_site_occupancy
  Pt  Pt1       1.0  0.24999989740481  0.2500001745829832  0.24999989884550192  1.0000
  Pt  Pt2       1.0  0.7499999931018995  0.7500000500456523  0.7499999786261317  1.0000
  Pd  Pd1       1.0  7.363928998137404e-09  1.4978760886674676e-08  0.9999999261493561  1.0000
  Cl  Cl1       1.0  0.2510180892457257  0.25101802738072854  0.7489819802168338  1.0000
  Cl  Cl2       1.0  0.7489819948925307  0.7489818864386287  0.2510181148350568  1.0000
  Cl  Cl3       1.0  0.7489819407345114  0.2510179596846371  0.2510180800436825  1.0000
  Cl  Cl4       1.0  0.25101807193654035  0.748981999071001  0.748981968651899  1.0000
  Cl  Cl5       1.0  0.25101803613289536  0.7489818613030976  0.2510180933234497  1.0000
  Cl  Cl6       1.0  0.7489819781443726  0.25101801319701283  0.7489819737653374  1.0000
