data_image0
_chemical_formula_structural       Pt2PdS6
_chemical_formula_sum              "Pt2 Pd1 S6"
_cell_length_a       5.867232201876072
_cell_length_b       5.867232140932587
_cell_length_c       5.867232089264543
_cell_angle_alpha    59.99999997279002
_cell_angle_beta     60.00000121227742
_cell_angle_gamma    60.000000559679414

_space_group_name_H-M_alt    "P 1"
_space_group_IT_number       1

loop_
  _space_group_symop_operation_xyz
  'x, y, z'

loop_
  _atom_site_type_symbol
  _atom_site_label
  _atom_site_symmetry_multiplicity
  _atom_site_fract_x
  _atom_site_fract_y
  _atom_site_fract_z
  _atom_site_occupancy
  Pt  Pt1       1.0  0.2500001604107602  0.24999983491510105  0.2500000429417707  1.0000
  Pt  Pt2       1.0  0.7500001466772647  0.7499998825705128  0.749999936752094  1.0000
  Pd  Pd1       1.0  0.9999999727849667  1.669945662743065e-08  1.0370931778933128e-08  1.0000
  S   S1        1.0  0.27089459757317746  0.27089476865764983  0.7291054010545568  1.0000
  S   S2        1.0  0.7291052466579668  0.7291053809264058  0.27089472355149463  1.0000
  S   S3        1.0  0.729105195357583  0.27089465799673706  0.270894780746473  1.0000
  S   S4        1.0  0.2708946635265503  0.7291053767785537  0.7291052575869718  1.0000
  S   S5        1.0  0.2708947119809449  0.7291053355966732  0.270894602130907  1.0000
  S   S6        1.0  0.7291052960963437  0.2708947534518537  0.7291052407283769  1.0000
