data_image0
_chemical_formula_structural       Pt2PdBr6
_chemical_formula_sum              "Pt2 Pd1 Br6"
_cell_length_a       6.973703375422959
_cell_length_b       6.973703432444963
_cell_length_c       6.973703543159934
_cell_angle_alpha    59.99999777754936
_cell_angle_beta     59.999999833377224
_cell_angle_gamma    60.00000038741166

_space_group_name_H-M_alt    "P 1"
_space_group_IT_number       1

loop_
  _space_group_symop_operation_xyz
  'x, y, z'

loop_
  _atom_site_type_symbol
  _atom_site_label
  _atom_site_symmetry_multiplicity
  _atom_site_fract_x
  _atom_site_fract_y
  _atom_site_fract_z
  _atom_site_occupancy
  Pt  Pt1       1.0  0.24999996688033174  0.25000004132103787  0.2499999535036216  1.0000
  Pt  Pt2       1.0  0.7500000647023077  0.7499998851154116  0.7499999022059385  1.0000
  Pd  Pd1       1.0  2.661035250251513e-08  0.9999999648753376  2.4332571585914947e-08  1.0000
  Br  Br1       1.0  0.250815595555609  0.25081563396753637  0.7491844028358369  1.0000
  Br  Br2       1.0  0.7491843977744369  0.7491844171614588  0.2508156634643624  1.0000
  Br  Br3       1.0  0.7491843878263678  0.2508155980393734  0.25081566620665624  1.0000
  Br  Br4       1.0  0.25081565464373734  0.7491843652779677  0.7491843592030937  1.0000
  Br  Br5       1.0  0.2508155825313896  0.7491843883451829  0.25081567067520644  1.0000
  Br  Br6       1.0  0.7491843261351274  0.2508157031771738  0.749184364703619  1.0000
