data_image0
_chemical_formula_structural       Pt2PSe6
_chemical_formula_sum              "Pt2 P1 Se6"
_cell_length_a       6.31647476254436
_cell_length_b       6.316474798284454
_cell_length_c       6.316474765563745
_cell_angle_alpha    60.00000012474735
_cell_angle_beta     60.000000487824366
_cell_angle_gamma    59.99999993856504

_space_group_name_H-M_alt    "P 1"
_space_group_IT_number       1

loop_
  _space_group_symop_operation_xyz
  'x, y, z'

loop_
  _atom_site_type_symbol
  _atom_site_label
  _atom_site_symmetry_multiplicity
  _atom_site_fract_x
  _atom_site_fract_y
  _atom_site_fract_z
  _atom_site_occupancy
  Pt  Pt1       1.0  0.24999996954045908  0.24999998638792553  0.2500000224588821  1.0000
  Pt  Pt2       1.0  0.749999977644756  0.7499999824314041  0.7500000481448897  1.0000
  P   P1        1.0  9.473061904473929e-09  0.9999999825492791  0.9999999897403755  1.0000
  Se  Se1       1.0  0.2596960621528064  0.25969607098933667  0.7403039302787543  1.0000
  Se  Se2       1.0  0.7403039507132805  0.7403039366093727  0.259696039016884  1.0000
  Se  Se3       1.0  0.7403039524251614  0.2596960660683063  0.25969604675298413  1.0000
  Se  Se4       1.0  0.25969605935103673  0.7403039667369996  0.7403039516465004  1.0000
  Se  Se5       1.0  0.2596960488774383  0.7403039853563343  0.2596960273852487  1.0000
  Se  Se6       1.0  0.7403039663521578  0.25969602612031284  0.7403039498717967  1.0000
