data_image0
_chemical_formula_structural       Pt2RhO6
_chemical_formula_sum              "Pt2 Rh1 O6"
_cell_length_a       2.892380131902658
_cell_length_b       3.7197093335427303
_cell_length_c       2.812678729166664
_cell_angle_alpha    59.2867246701051
_cell_angle_beta     55.27359142241263
_cell_angle_gamma    47.47042156198476

_space_group_name_H-M_alt    "P 1"
_space_group_IT_number       1

loop_
  _space_group_symop_operation_xyz
  'x, y, z'

loop_
  _atom_site_type_symbol
  _atom_site_label
  _atom_site_symmetry_multiplicity
  _atom_site_fract_x
  _atom_site_fract_y
  _atom_site_fract_z
  _atom_site_occupancy
  Pt  Pt1       1.0  0.3416792344256697  0.44149313281018665  0.9097794029198559  1.0000
  Pt  Pt2       1.0  0.45571581211069423  0.5968461087478886  0.6627366801677949  1.0000
  Rh  Rh1       1.0  0.6886931534465974  0.32143700290263266  0.8019530889923714  1.0000
  O   O1        1.0  0.020876367387405982  0.2389749463907953  0.05833611101698977  1.0000
  O   O2        1.0  0.6638907109232165  0.599329502854845  0.05708604864130749  1.0000
  O   O3        1.0  0.27910166197098696  0.6097385557361783  0.1569857235798835  1.0000
  O   O4        1.0  0.48471045010510194  0.8107923142655519  0.11745654390847299  1.0000
  O   O5        1.0  0.6776823630644792  0.3986749529584779  0.23414883682309684  1.0000
  O   O6        1.0  0.8718693165811898  0.17744447732461974  0.8410657550871661  1.0000
