data_image0
_chemical_formula_structural       Pt2RuO6
_chemical_formula_sum              "Pt2 Ru1 O6"
_cell_length_a       5.403863873530228
_cell_length_b       5.403863585247442
_cell_length_c       5.403863301681158
_cell_angle_alpha    60.000000766687755
_cell_angle_beta     60.00000097902957
_cell_angle_gamma    59.9999999688372

_space_group_name_H-M_alt    "P 1"
_space_group_IT_number       1

loop_
  _space_group_symop_operation_xyz
  'x, y, z'

loop_
  _atom_site_type_symbol
  _atom_site_label
  _atom_site_symmetry_multiplicity
  _atom_site_fract_x
  _atom_site_fract_y
  _atom_site_fract_z
  _atom_site_occupancy
  Pt  Pt1       1.0  0.24999993103422236  0.2499995451655137  0.2500005863938378  1.0000
  Pt  Pt2       1.0  0.7499986531039873  0.7499987669491572  0.7500020099322389  1.0000
  Ru  Ru1       1.0  0.9999997146237074  0.9999996509706294  6.354936445380859e-07  1.0000
  O   O1        1.0  0.24662639140277265  0.24662574495091572  0.7533736992414009  1.0000
  O   O2        1.0  0.7533734263710345  0.7533746228107614  0.24662527607950002  1.0000
  O   O3        1.0  0.7533738878331532  0.2466269845384817  0.24662510325030376  1.0000
  O   O4        1.0  0.24662653393791578  0.7533737571832347  0.7533741529115536  1.0000
  O   O5        1.0  0.24662667025748128  0.7533741817436466  0.24662542656840752  1.0000
  O   O6        1.0  0.7533748093802807  0.24662673902560722  0.7533730760477739  1.0000
