data_image0
_chemical_formula_structural       Pt2ScCl6
_chemical_formula_sum              "Pt2 Sc1 Cl6"
_cell_length_a       6.619103066963911
_cell_length_b       6.6191030055404445
_cell_length_c       6.619102948659291
_cell_angle_alpha    59.99999839594796
_cell_angle_beta     59.99999939240589
_cell_angle_gamma    59.99999867928356

_space_group_name_H-M_alt    "P 1"
_space_group_IT_number       1

loop_
  _space_group_symop_operation_xyz
  'x, y, z'

loop_
  _atom_site_type_symbol
  _atom_site_label
  _atom_site_symmetry_multiplicity
  _atom_site_fract_x
  _atom_site_fract_y
  _atom_site_fract_z
  _atom_site_occupancy
  Pt  Pt1       1.0  0.25000004086081246  0.25000023565558893  0.24999976611894065  1.0000
  Pt  Pt2       1.0  0.7499999152446007  0.7500000834094214  0.7499997545954495  1.0000
  Sc  Sc1       1.0  8.934128175087992e-09  0.9999999888980889  0.9999999905084404  1.0000
  Cl  Cl1       1.0  0.25830638805165856  0.25830622381652457  0.7416936897526475  1.0000
  Cl  Cl2       1.0  0.741693720414803  0.7416936067643877  0.2583063238407021  1.0000
  Cl  Cl3       1.0  0.7416936735648153  0.25830624125165386  0.25830643245342055  1.0000
  Cl  Cl4       1.0  0.25830644931410285  0.741693687396137  0.7416937318769466  1.0000
  Cl  Cl5       1.0  0.2583061968397825  0.7416936511463275  0.25830642406952037  1.0000
  Cl  Cl6       1.0  0.7416936142851234  0.2583062812021014  0.7416938837120859  1.0000
