data_image0
_chemical_formula_structural       Pt2SnCl6
_chemical_formula_sum              "Pt2 Sn1 Cl6"
_cell_length_a       6.62658090819828
_cell_length_b       6.626580833198343
_cell_length_c       6.626580877044389
_cell_angle_alpha    59.99999976896191
_cell_angle_beta     60.000001327305625
_cell_angle_gamma    59.99999906624806

_space_group_name_H-M_alt    "P 1"
_space_group_IT_number       1

loop_
  _space_group_symop_operation_xyz
  'x, y, z'

loop_
  _atom_site_type_symbol
  _atom_site_label
  _atom_site_symmetry_multiplicity
  _atom_site_fract_x
  _atom_site_fract_y
  _atom_site_fract_z
  _atom_site_occupancy
  Pt  Pt1       1.0  0.24999995411532955  0.24999988693764552  0.2500001407413728  1.0000
  Pt  Pt2       1.0  0.7500000656176392  0.7499999971908856  0.7500002625617124  1.0000
  Sn  Sn1       1.0  0.9999999946667119  5.54469182775555e-09  0.9999999410404175  1.0000
  Cl  Cl1       1.0  0.25692627953310315  0.2569262928885188  0.7430736425422626  1.0000
  Cl  Cl2       1.0  0.7430736769553483  0.7430737705183736  0.2569262530398888  1.0000
  Cl  Cl3       1.0  0.7430737446538312  0.25692631148026057  0.25692618720415  1.0000
  Cl  Cl4       1.0  0.25692623448748875  0.7430737519266317  0.7430736698882376  1.0000
  Cl  Cl5       1.0  0.25692628940050094  0.743073763387402  0.2569262192360579  1.0000
  Cl  Cl6       1.0  0.7430737632803903  0.25692622054557773  0.7430736830775695  1.0000
