data_image0
_chemical_formula_structural       Pt2SBr6
_chemical_formula_sum              "Pt2 S1 Br6"
_cell_length_a       6.920633887390189
_cell_length_b       6.920633864207333
_cell_length_c       6.920633940075037
_cell_angle_alpha    60.000001522382874
_cell_angle_beta     60.000004852091
_cell_angle_gamma    60.000004802709014

_space_group_name_H-M_alt    "P 1"
_space_group_IT_number       1

loop_
  _space_group_symop_operation_xyz
  'x, y, z'

loop_
  _atom_site_type_symbol
  _atom_site_label
  _atom_site_symmetry_multiplicity
  _atom_site_fract_x
  _atom_site_fract_y
  _atom_site_fract_z
  _atom_site_occupancy
  Pt  Pt1       1.0  0.24999986796148332  0.2500000343040307  0.24999992190596804  1.0000
  Pt  Pt2       1.0  0.7500001040785633  0.7500000338937967  0.7500000659787105  1.0000
  S   S1        1.0  1.4157600929254715e-08  0.9999999575271912  2.5979692076670627e-09  1.0000
  Br  Br1       1.0  0.25142620835070295  0.2514261431465791  0.7485738042866183  1.0000
  Br  Br2       1.0  0.7485737898473628  0.7485738365662298  0.25142611072484744  1.0000
  Br  Br3       1.0  0.7485738398319021  0.2514261593910197  0.2514262497247113  1.0000
  Br  Br4       1.0  0.25142620013049993  0.7485737300670712  0.7485738296925158  1.0000
  Br  Br5       1.0  0.25142616292106135  0.7485739201593355  0.2514261407936971  1.0000
  Br  Br6       1.0  0.7485738165505382  0.25142619582040293  0.7485738642778346  1.0000
