data_image0
_chemical_formula_structural       Pt2SiO6
_chemical_formula_sum              "Pt2 Si1 O6"
_cell_length_a       4.354808998939642
_cell_length_b       4.3545824429002105
_cell_length_c       4.354618254986283
_cell_angle_alpha    60.002970877217436
_cell_angle_beta     59.99783445578615
_cell_angle_gamma    59.99785308112648

_space_group_name_H-M_alt    "P 1"
_space_group_IT_number       1

loop_
  _space_group_symop_operation_xyz
  'x, y, z'

loop_
  _atom_site_type_symbol
  _atom_site_label
  _atom_site_symmetry_multiplicity
  _atom_site_fract_x
  _atom_site_fract_y
  _atom_site_fract_z
  _atom_site_occupancy
  Pt  Pt1       1.0  0.25000514727221435  0.25000420233675635  0.25000406924832685  1.0000
  Pt  Pt2       1.0  0.7500012177969836  0.7500004255540276  0.7500060495187382  1.0000
  Si  Si1       1.0  3.7232267980936266e-06  0.9999980818296671  2.10958554761817e-09  1.0000
  O   O1        1.0  0.2621681168801756  0.26216661346934483  0.7378349802885436  1.0000
  O   O2        1.0  0.7378333067996303  0.7378321021022081  0.26216841500411237  1.0000
  O   O3        1.0  0.7378300472781916  0.2621709985280781  0.26217569726268836  1.0000
  O   O4        1.0  0.2621754083919992  0.7378247777011575  0.7378234588923627  1.0000
  O   O5        1.0  0.26216628921428226  0.7378350179858024  0.26216937389136225  1.0000
  O   O6        1.0  0.7378350282122381  0.26216486753319856  0.7378325204996936  1.0000
