data_image0
_chemical_formula_structural       Pt2ScBr6
_chemical_formula_sum              "Pt2 Sc1 Br6"
_cell_length_a       7.082304986921396
_cell_length_b       7.082305073854036
_cell_length_c       7.08230491901508
_cell_angle_alpha    60.00000045864724
_cell_angle_beta     60.00000060375619
_cell_angle_gamma    60.00000034559935

_space_group_name_H-M_alt    "P 1"
_space_group_IT_number       1

loop_
  _space_group_symop_operation_xyz
  'x, y, z'

loop_
  _atom_site_type_symbol
  _atom_site_label
  _atom_site_symmetry_multiplicity
  _atom_site_fract_x
  _atom_site_fract_y
  _atom_site_fract_z
  _atom_site_occupancy
  Pt  Pt1       1.0  0.2500002390418806  0.24999993740660179  0.2500000672035541  1.0000
  Pt  Pt2       1.0  0.7500000199040097  0.7499999522933194  0.7500002048506267  1.0000
  Sc  Sc1       1.0  0.9999999479090627  2.4210236870460647e-08  0.9999999602855012  1.0000
  Br  Br1       1.0  0.25741488923612915  0.2574148926895675  0.742585032972682  1.0000
  Br  Br2       1.0  0.7425850354094427  0.7425851146029337  0.25741488572127313  1.0000
  Br  Br3       1.0  0.7425850399165506  0.25741496528  0.2574148953882701  1.0000
  Br  Br4       1.0  0.25741488337835194  0.742585055846922  0.7425850283595669  1.0000
  Br  Br5       1.0  0.257414881102335  0.7425850976014111  0.2574148699025735  1.0000
  Br  Br6       1.0  0.7425850621190584  0.25741496157016824  0.7425850573349926  1.0000
