data_image0
_chemical_formula_structural       Pt2SI6
_chemical_formula_sum              "Pt2 S1 I6"
_cell_length_a       7.46618203209637
_cell_length_b       7.4661818601892005
_cell_length_c       7.466181808502487
_cell_angle_alpha    60.00000047906468
_cell_angle_beta     60.000000582837835
_cell_angle_gamma    60.000000640399236

_space_group_name_H-M_alt    "P 1"
_space_group_IT_number       1

loop_
  _space_group_symop_operation_xyz
  'x, y, z'

loop_
  _atom_site_type_symbol
  _atom_site_label
  _atom_site_symmetry_multiplicity
  _atom_site_fract_x
  _atom_site_fract_y
  _atom_site_fract_z
  _atom_site_occupancy
  Pt  Pt1       1.0  0.24999994417268392  0.2499999225889277  0.2500001139691471  1.0000
  Pt  Pt2       1.0  0.750000003903592  0.7499999449288838  0.7500000417325882  1.0000
  S   S1        1.0  2.4042953900120837e-08  0.9999999557094752  0.9999999913725677  1.0000
  I   I1        1.0  0.26822400104379074  0.2682240569902175  0.7317759614881684  1.0000
  I   I2        1.0  0.7317760593345628  0.7317760582264561  0.2682239405475991  1.0000
  I   I3        1.0  0.7317759904118594  0.26822401364238657  0.2682240385947585  1.0000
  I   I4        1.0  0.26822398885849147  0.7317760293971347  0.7317759253504871  1.0000
  I   I5        1.0  0.2682240020163407  0.7317759863589799  0.2682240299877516  1.0000
  I   I6        1.0  0.7317759895488851  0.2682240337150841  0.7317759513471394  1.0000
