data_image0
_chemical_formula_structural       Pt2SeF6
_chemical_formula_sum              "Pt2 Se1 F6"
_cell_length_a       5.278194788322328
_cell_length_b       5.278194775107866
_cell_length_c       5.278194806967391
_cell_angle_alpha    60.00000023672138
_cell_angle_beta     60.000000344282086
_cell_angle_gamma    59.99999969916976

_space_group_name_H-M_alt    "P 1"
_space_group_IT_number       1

loop_
  _space_group_symop_operation_xyz
  'x, y, z'

loop_
  _atom_site_type_symbol
  _atom_site_label
  _atom_site_symmetry_multiplicity
  _atom_site_fract_x
  _atom_site_fract_y
  _atom_site_fract_z
  _atom_site_occupancy
  Pt  Pt1       1.0  0.24999999600777406  0.25000007064147606  0.24999994876525372  1.0000
  Pt  Pt2       1.0  0.7499999849333824  0.7499999914877683  0.7500000224750231  1.0000
  Se  Se1       1.0  6.40756921563442e-10  4.640771860872846e-09  2.0094281297919293e-08  1.0000
  F   F1        1.0  0.26507932907781084  0.26507929250387513  0.734920682108826  1.0000
  F   F2        1.0  0.7349206977174748  0.7349206976934065  0.2650793135378904  1.0000
  F   F3        1.0  0.7349206759538214  0.2650792569478824  0.26507933543516876  1.0000
  F   F4        1.0  0.26507933026893876  0.7349207030843826  0.7349206988424283  1.0000
  F   F5        1.0  0.2650793118596159  0.7349206992583698  0.2650792621366032  1.0000
  F   F6        1.0  0.7349206871365761  0.26507929557968346  0.7349207015137698  1.0000
