data_image0
_chemical_formula_structural       Pt2SiSe6
_chemical_formula_sum              "Pt2 Si1 Se6"
_cell_length_a       6.245148172381212
_cell_length_b       6.245147717673491
_cell_length_c       6.245147821754839
_cell_angle_alpha    59.99999789146951
_cell_angle_beta     60.000000755942985
_cell_angle_gamma    59.99999894594228

_space_group_name_H-M_alt    "P 1"
_space_group_IT_number       1

loop_
  _space_group_symop_operation_xyz
  'x, y, z'

loop_
  _atom_site_type_symbol
  _atom_site_label
  _atom_site_symmetry_multiplicity
  _atom_site_fract_x
  _atom_site_fract_y
  _atom_site_fract_z
  _atom_site_occupancy
  Pt  Pt1       1.0  0.2500001529076917  0.24999930371850088  0.2500004955012721  1.0000
  Pt  Pt2       1.0  0.7500000247494073  0.7499996290917093  0.7500006155447637  1.0000
  Si  Si1       1.0  2.1476036711414143e-08  1.0197794841065193e-07  0.9999999622916529  1.0000
  Se  Se1       1.0  0.2841296659620735  0.2841297282409175  0.7158702664852624  1.0000
  Se  Se2       1.0  0.7158700517271243  0.7158707342385261  0.28412942902637567  1.0000
  Se  Se3       1.0  0.7158703645645967  0.2841298089930232  0.28412948415771727  1.0000
  Se  Se4       1.0  0.28412958682376  0.7158705181695298  0.7158701813777038  1.0000
  Se  Se5       1.0  0.2841296912921707  0.7158704631998725  0.28412949380405383  1.0000
  Se  Se6       1.0  0.7158704620458599  0.284129712956876  0.7158700597923042  1.0000
