data_image0
_chemical_formula_structural       Pt2SeS6
_chemical_formula_sum              "Pt2 Se1 S6"
_cell_length_a       5.92717432249897
_cell_length_b       5.927174264341006
_cell_length_c       5.927174193020787
_cell_angle_alpha    59.99999988187571
_cell_angle_beta     59.99999992473126
_cell_angle_gamma    59.99999970933726

_space_group_name_H-M_alt    "P 1"
_space_group_IT_number       1

loop_
  _space_group_symop_operation_xyz
  'x, y, z'

loop_
  _atom_site_type_symbol
  _atom_site_label
  _atom_site_symmetry_multiplicity
  _atom_site_fract_x
  _atom_site_fract_y
  _atom_site_fract_z
  _atom_site_occupancy
  Pt  Pt1       1.0  0.2500000970595434  0.24999994529573372  0.2499998875097025  1.0000
  Pt  Pt2       1.0  0.7500000075526727  0.7500000321877615  0.7499998799677019  1.0000
  Se  Se1       1.0  0.9999999848469743  4.5459077228473444e-08  0.999999976411251  1.0000
  S   S1        1.0  0.2541617114069434  0.25416170999413773  0.7458383402543657  1.0000
  S   S2        1.0  0.7458382908786167  0.745838253025105  0.25416176737164403  1.0000
  S   S3        1.0  0.745838269990202  0.25416171244134583  0.254161731031186  1.0000
  S   S4        1.0  0.25416172037012796  0.7458382629758271  0.7458383038112553  1.0000
  S   S5        1.0  0.2541616894602447  0.7458382974315371  0.2541617956465583  1.0000
  S   S6        1.0  0.7458382268299568  0.25416174824057336  0.7458383085892633  1.0000
