data_image0
_chemical_formula_structural       Pt2SF6
_chemical_formula_sum              "Pt2 S1 F6"
_cell_length_a       5.116569144712812
_cell_length_b       5.116569139567552
_cell_length_c       5.116569037813235
_cell_angle_alpha    60.00000009436285
_cell_angle_beta     59.99999991136043
_cell_angle_gamma    59.99999922085515

_space_group_name_H-M_alt    "P 1"
_space_group_IT_number       1

loop_
  _space_group_symop_operation_xyz
  'x, y, z'

loop_
  _atom_site_type_symbol
  _atom_site_label
  _atom_site_symmetry_multiplicity
  _atom_site_fract_x
  _atom_site_fract_y
  _atom_site_fract_z
  _atom_site_occupancy
  Pt  Pt1       1.0  0.24999998239742421  0.25000002472678334  0.2500000136579983  1.0000
  Pt  Pt2       1.0  0.75000000755847  0.7499999066224826  0.750000059390006  1.0000
  S   S1        1.0  0.9999999631404936  0.9999999210084343  9.310536095901726e-08  1.0000
  F   F1        1.0  0.26551737720112334  0.26551742767488795  0.7344825620685256  1.0000
  F   F2        1.0  0.7344826252902356  0.7344826353269879  0.2655173704802268  1.0000
  F   F3        1.0  0.7344825978484117  0.2655174242558053  0.2655173215825758  1.0000
  F   F4        1.0  0.26551740012937375  0.7344826387460704  0.7344826249495715  1.0000
  F   F5        1.0  0.26551741775179305  0.7344826307852488  0.2655173462669188  1.0000
  F   F6        1.0  0.7344826277788992  0.26551738434295014  0.7344826316965684  1.0000
