data_image0
_chemical_formula_structural       Pt2SO6
_chemical_formula_sum              "Pt2 S1 O6"
_cell_length_a       4.991422656954982
_cell_length_b       4.9914225600093385
_cell_length_c       4.991422317419922
_cell_angle_alpha    59.999999166874154
_cell_angle_beta     59.999999087449574
_cell_angle_gamma    59.999998104749636

_space_group_name_H-M_alt    "P 1"
_space_group_IT_number       1

loop_
  _space_group_symop_operation_xyz
  'x, y, z'

loop_
  _atom_site_type_symbol
  _atom_site_label
  _atom_site_symmetry_multiplicity
  _atom_site_fract_x
  _atom_site_fract_y
  _atom_site_fract_z
  _atom_site_occupancy
  Pt  Pt1       1.0  0.2499998696938964  0.250000325753074  0.250000418851589  1.0000
  Pt  Pt2       1.0  0.7500002441281798  0.7500001061960552  0.7500007254495283  1.0000
  S   S1        1.0  0.9999999747854357  6.870357272623939e-08  7.442046963781909e-08  1.0000
  O   O1        1.0  0.23674719511134198  0.23674734955573784  0.76325248575862  1.0000
  O   O2        1.0  0.7632528884127496  0.7632525278574338  0.23674692748814036  1.0000
  O   O3        1.0  0.7632526856559738  0.2367472201008466  0.23674723124695632  1.0000
  O   O4        1.0  0.2367470096629482  0.763252836432359  0.7632524528276463  1.0000
  O   O5        1.0  0.23674747746149993  0.7632524619312921  0.23674699291656795  1.0000
  O   O6        1.0  0.7632526573577658  0.2367471921952613  0.7632526545802532  1.0000
