data_image0
_chemical_formula_structural       Pt2SnI6
_chemical_formula_sum              "Pt2 Sn1 I6"
_cell_length_a       7.664318926807456
_cell_length_b       7.664318867120293
_cell_length_c       7.6643188543465435
_cell_angle_alpha    59.999999871132886
_cell_angle_beta     59.99999959573135
_cell_angle_gamma    59.9999985762726

_space_group_name_H-M_alt    "P 1"
_space_group_IT_number       1

loop_
  _space_group_symop_operation_xyz
  'x, y, z'

loop_
  _atom_site_type_symbol
  _atom_site_label
  _atom_site_symmetry_multiplicity
  _atom_site_fract_x
  _atom_site_fract_y
  _atom_site_fract_z
  _atom_site_occupancy
  Pt  Pt1       1.0  0.250000009396804  0.25000000697918323  0.24999999308796356  1.0000
  Pt  Pt2       1.0  0.7499999892774971  0.7500000337214117  0.7499999818904383  1.0000
  Sn  Sn1       1.0  1.1337298760645149e-08  1.1185878593555295e-08  0.9999999796051795  1.0000
  I   I1        1.0  0.2646142625968199  0.264614239432774  0.735385753139957  1.0000
  I   I2        1.0  0.7353857517074283  0.7353857453384268  0.26461425242614733  1.0000
  I   I3        1.0  0.7353857738276068  0.2646142043150519  0.2646142444968013  1.0000
  I   I4        1.0  0.2646142236456335  0.7353857676722878  0.7353857824004748  1.0000
  I   I5        1.0  0.26461421189615864  0.7353857769666309  0.2646142475568643  1.0000
  I   I6        1.0  0.7353857635865648  0.2646142157944838  0.7353857669013087  1.0000
