data_image0
_chemical_formula_structural       Pt2SeI6
_chemical_formula_sum              "Pt2 Se1 I6"
_cell_length_a       7.600844590172656
_cell_length_b       7.600844627557557
_cell_length_c       7.600844646499842
_cell_angle_alpha    59.99999935797544
_cell_angle_beta     59.99999965401663
_cell_angle_gamma    60.000000825071325

_space_group_name_H-M_alt    "P 1"
_space_group_IT_number       1

loop_
  _space_group_symop_operation_xyz
  'x, y, z'

loop_
  _atom_site_type_symbol
  _atom_site_label
  _atom_site_symmetry_multiplicity
  _atom_site_fract_x
  _atom_site_fract_y
  _atom_site_fract_z
  _atom_site_occupancy
  Pt  Pt1       1.0  0.24999999261122563  0.2499999938253925  0.24999998800296108  1.0000
  Pt  Pt2       1.0  0.7500000074193982  0.7499999701968862  0.7500000087970419  1.0000
  Se  Se1       1.0  0.9999999752482605  0.9999999967773447  5.740342487929838e-08  1.0000
  I   I1        1.0  0.2665196748499659  0.2665196734127634  0.7334803302614579  1.0000
  I   I2        1.0  0.7334803401722806  0.7334803276700439  0.266519654984545  1.0000
  I   I3        1.0  0.733480341898941  0.26651967268975624  0.2665196517894613  1.0000
  I   I4        1.0  0.26651967669876253  0.733480326781724  0.7334803193180438  1.0000
  I   I5        1.0  0.26651967748788363  0.7334803440679434  0.26651966773725366  1.0000
  I   I6        1.0  0.7334803144544826  0.26651969890937444  0.7334803159952933  1.0000
