data_image0
_chemical_formula_structural       Pt2SCl6
_chemical_formula_sum              "Pt2 S1 Cl6"
_cell_length_a       6.481953714853194
_cell_length_b       6.481953862799972
_cell_length_c       6.481953799837711
_cell_angle_alpha    60.00000047208298
_cell_angle_beta     60.00000060495722
_cell_angle_gamma    60.00000197479126

_space_group_name_H-M_alt    "P 1"
_space_group_IT_number       1

loop_
  _space_group_symop_operation_xyz
  'x, y, z'

loop_
  _atom_site_type_symbol
  _atom_site_label
  _atom_site_symmetry_multiplicity
  _atom_site_fract_x
  _atom_site_fract_y
  _atom_site_fract_z
  _atom_site_occupancy
  Pt  Pt1       1.0  0.25000003261497244  0.2499999367435331  0.2500000268370086  1.0000
  Pt  Pt2       1.0  0.7499999825905121  0.7499999689459634  0.7500000726652483  1.0000
  S   S1        1.0  3.343305371023989e-08  0.9999999905526571  4.8174188910146417e-08  1.0000
  Cl  Cl1       1.0  0.24946385593503623  0.24946382913224915  0.750536139678168  1.0000
  Cl  Cl2       1.0  0.7505361424257324  0.7505362125989896  0.24946379840442442  1.0000
  Cl  Cl3       1.0  0.7505360779914692  0.24946390864666712  0.249463852003675  1.0000
  Cl  Cl4       1.0  0.24946393694227487  0.7505361047425423  0.7505360811642314  1.0000
  Cl  Cl5       1.0  0.2494638589013853  0.7505361360842912  0.24946383675383674  1.0000
  Cl  Cl6       1.0  0.7505360840196095  0.2494639169837587  0.7505361310939601  1.0000
