data_image0
_chemical_formula_structural       Pt2SeO6
_chemical_formula_sum              "Pt2 Se1 O6"
_cell_length_a       5.1616286917723615
_cell_length_b       5.161629449469735
_cell_length_c       5.161628466606718
_cell_angle_alpha    60.000003956397585
_cell_angle_beta     59.99999729375316
_cell_angle_gamma    60.000000411017

_space_group_name_H-M_alt    "P 1"
_space_group_IT_number       1

loop_
  _space_group_symop_operation_xyz
  'x, y, z'

loop_
  _atom_site_type_symbol
  _atom_site_label
  _atom_site_symmetry_multiplicity
  _atom_site_fract_x
  _atom_site_fract_y
  _atom_site_fract_z
  _atom_site_occupancy
  Pt  Pt1       1.0  0.24999696550698328  0.2500031841151435  0.24999885254041226  1.0000
  Pt  Pt2       1.0  0.7499979144647454  0.7500000754332214  0.750000168136897  1.0000
  Se  Se1       1.0  0.9999991232985765  7.308184831310268e-07  0.9999997203395856  1.0000
  O   O1        1.0  0.24943306346192867  0.24943083870953647  0.7505685836732252  1.0000
  O   O2        1.0  0.7505696406207398  0.7505667736050511  0.24943225462496574  1.0000
  O   O3        1.0  0.7505691599017202  0.2494318154986781  0.24943166743186956  1.0000
  O   O4        1.0  0.24943270726213265  0.7505671398134728  0.7505689798228884  1.0000
  O   O5        1.0  0.24943254997846961  0.7505675201645455  0.24943168324484596  1.0000
  O   O6        1.0  0.7505689287813223  0.2494320164804849  0.7505678736731185  1.0000
