data_image0
_chemical_formula_structural       Pt2TiF6
_chemical_formula_sum              "Pt2 Ti1 F6"
_cell_length_a       5.544090247021938
_cell_length_b       5.54409066725097
_cell_length_c       5.544090139068955
_cell_angle_alpha    60.00000110014521
_cell_angle_beta     59.99999868329533
_cell_angle_gamma    59.999998739901656

_space_group_name_H-M_alt    "P 1"
_space_group_IT_number       1

loop_
  _space_group_symop_operation_xyz
  'x, y, z'

loop_
  _atom_site_type_symbol
  _atom_site_label
  _atom_site_symmetry_multiplicity
  _atom_site_fract_x
  _atom_site_fract_y
  _atom_site_fract_z
  _atom_site_occupancy
  Pt  Pt1       1.0  0.24999972793953645  0.2500001733161604  0.2500000418756401  1.0000
  Pt  Pt2       1.0  0.7500002779751406  0.7499997180452856  0.7499999903225837  1.0000
  Ti  Ti1       1.0  9.55108948665078e-09  8.836398121937243e-09  0.9999999926099784  1.0000
  F   F1        1.0  0.23976146038837842  0.23976160313969375  0.7602384304705866  1.0000
  F   F2        1.0  0.7602384440377654  0.7602383677493418  0.239761603689497  1.0000
  F   F3        1.0  0.7602384393809538  0.2397615971077748  0.23976155381802602  1.0000
  F   F4        1.0  0.23976162024141437  0.7602384267996456  0.7602384375613139  1.0000
  F   F5        1.0  0.23976158731948943  0.7602384814377107  0.2397615445426322  1.0000
  F   F6        1.0  0.7602384308570206  0.2397616043245004  0.7602384312210739  1.0000
