data_image0
_chemical_formula_structural       Pt2TiS6
_chemical_formula_sum              "Pt2 Ti1 S6"
_cell_length_a       5.8336479057303
_cell_length_b       5.833647998094374
_cell_length_c       5.833647856325423
_cell_angle_alpha    60.000000647306194
_cell_angle_beta     60.000001041958065
_cell_angle_gamma    60.000000305593275

_space_group_name_H-M_alt    "P 1"
_space_group_IT_number       1

loop_
  _space_group_symop_operation_xyz
  'x, y, z'

loop_
  _atom_site_type_symbol
  _atom_site_label
  _atom_site_symmetry_multiplicity
  _atom_site_fract_x
  _atom_site_fract_y
  _atom_site_fract_z
  _atom_site_occupancy
  Pt  Pt1       1.0  0.24999978721111377  0.24999995047555404  0.2500001874692687  1.0000
  Pt  Pt2       1.0  0.749999896861657  0.7500000865649903  0.7499999320948472  1.0000
  Ti  Ti1       1.0  0.999999985224986  0.9999999790055063  1.9598947042694896e-08  1.0000
  S   S1        1.0  0.270798734629219  0.27079864083322874  0.7292013038521129  1.0000
  S   S2        1.0  0.7292013498992357  0.7292013290249334  0.27079868507341326  1.0000
  S   S3        1.0  0.7292014231503656  0.27079859545433105  0.2707987213316996  1.0000
  S   S4        1.0  0.27079866045873496  0.7292013534093371  0.7292013248339696  1.0000
  S   S5        1.0  0.2707986925573548  0.729201353443239  0.27079862045658476  1.0000
  S   S6        1.0  0.7292014638667893  0.2707987213873917  0.7292012028961647  1.0000
