data_image0
_chemical_formula_structural       Pt2TiO6
_chemical_formula_sum              "Pt2 Ti1 O6"
_cell_length_a       4.952569560161453
_cell_length_b       4.952569235640974
_cell_length_c       4.952569210280081
_cell_angle_alpha    60.00000082407834
_cell_angle_beta     60.00000151584369
_cell_angle_gamma    59.999998004673536

_space_group_name_H-M_alt    "P 1"
_space_group_IT_number       1

loop_
  _space_group_symop_operation_xyz
  'x, y, z'

loop_
  _atom_site_type_symbol
  _atom_site_label
  _atom_site_symmetry_multiplicity
  _atom_site_fract_x
  _atom_site_fract_y
  _atom_site_fract_z
  _atom_site_occupancy
  Pt  Pt1       1.0  0.24999993564118891  0.24999970277034506  0.25000042981701565  1.0000
  Pt  Pt2       1.0  0.7499997858386667  0.7499995212934336  0.7500005321774841  1.0000
  Ti  Ti1       1.0  0.9999999727289363  0.999999962905773  6.650826364733428e-08  1.0000
  O   O1        1.0  0.2646074474794459  0.26460776340630776  0.7353923941677375  1.0000
  O   O2        1.0  0.7353925074183846  0.735392425107386  0.26460737122323225  1.0000
  O   O3        1.0  0.7353923273981655  0.26460768822007813  0.2646074743079162  1.0000
  O   O4        1.0  0.2646077386568434  0.7353926214680909  0.7353921264575305  1.0000
  O   O5        1.0  0.26460783077708017  0.7353925596355051  0.26460725177851696  1.0000
  O   O6        1.0  0.7353924496361566  0.2646077574715068  0.7353923511710176  1.0000
