data_image0
_chemical_formula_structural       Pt2TiI6
_chemical_formula_sum              "Pt2 Ti1 I6"
_cell_length_a       7.565171578537078
_cell_length_b       7.565171601069589
_cell_length_c       7.56517136619099
_cell_angle_alpha    60.00000032161646
_cell_angle_beta     60.000001910006745
_cell_angle_gamma    59.9999975154503

_space_group_name_H-M_alt    "P 1"
_space_group_IT_number       1

loop_
  _space_group_symop_operation_xyz
  'x, y, z'

loop_
  _atom_site_type_symbol
  _atom_site_label
  _atom_site_symmetry_multiplicity
  _atom_site_fract_x
  _atom_site_fract_y
  _atom_site_fract_z
  _atom_site_occupancy
  Pt  Pt1       1.0  0.2499999666284027  0.24999996593674875  0.2500000272206174  1.0000
  Pt  Pt2       1.0  0.750000018537411  0.7499999722808117  0.7500000789516142  1.0000
  Ti  Ti1       1.0  3.8097623793479306e-08  0.9999999498133094  3.248147636928026e-08  1.0000
  I   I1        1.0  0.25095015566288886  0.2509500993030562  0.7490498669348735  1.0000
  I   I2        1.0  0.7490498676454747  0.7490498664362373  0.2509500742205048  1.0000
  I   I3        1.0  0.7490499111031217  0.2509500884433022  0.25095008409417674  1.0000
  I   I4        1.0  0.2509500519823028  0.7490499938586247  0.7490499055584866  1.0000
  I   I5        1.0  0.25095003333293775  0.7490500304487966  0.25094997821210707  1.0000
  I   I6        1.0  0.7490499505048682  0.25095003080709916  0.7490499626790378  1.0000
