data_image0
_chemical_formula_structural       Pt2TiSe6
_chemical_formula_sum              "Pt2 Ti1 Se6"
_cell_length_a       6.2400471681030645
_cell_length_b       6.240047120135923
_cell_length_c       6.24004730013538
_cell_angle_alpha    59.999999895484414
_cell_angle_beta     60.00000054677368
_cell_angle_gamma    59.99999899094919

_space_group_name_H-M_alt    "P 1"
_space_group_IT_number       1

loop_
  _space_group_symop_operation_xyz
  'x, y, z'

loop_
  _atom_site_type_symbol
  _atom_site_label
  _atom_site_symmetry_multiplicity
  _atom_site_fract_x
  _atom_site_fract_y
  _atom_site_fract_z
  _atom_site_occupancy
  Pt  Pt1       1.0  0.24999989653178623  0.2500001967975599  0.2500000470282749  1.0000
  Pt  Pt2       1.0  0.7500000912530549  0.7499998406346444  0.7500001580849015  1.0000
  Ti  Ti1       1.0  0.9999999849910184  0.999999978410109  0.9999999798381891  1.0000
  Se  Se1       1.0  0.27799278625015356  0.27799287038062925  0.7220070654912196  1.0000
  Se  Se2       1.0  0.7220072281147288  0.7220071317226605  0.27799273855074885  1.0000
  Se  Se3       1.0  0.7220072156994869  0.27799281754811966  0.27799283985397144  1.0000
  Se  Se4       1.0  0.2779928001983756  0.7220071688534323  0.7220072004373053  1.0000
  Se  Se5       1.0  0.2779928014614389  0.7220071372275002  0.27799284733985025  1.0000
  Se  Se6       1.0  0.722007193969029  0.2779928550622037  0.7220071249211057  1.0000
