data_image0
_chemical_formula_structural       Pt2VI6
_chemical_formula_sum              "Pt2 V1 I6"
_cell_length_a       7.4083352771963975
_cell_length_b       7.408335247639987
_cell_length_c       7.408335233597972
_cell_angle_alpha    60.00000103695105
_cell_angle_beta     59.99999986454616
_cell_angle_gamma    59.999999822001726

_space_group_name_H-M_alt    "P 1"
_space_group_IT_number       1

loop_
  _space_group_symop_operation_xyz
  'x, y, z'

loop_
  _atom_site_type_symbol
  _atom_site_label
  _atom_site_symmetry_multiplicity
  _atom_site_fract_x
  _atom_site_fract_y
  _atom_site_fract_z
  _atom_site_occupancy
  Pt  Pt1       1.0  0.24999990522584745  0.25000007818504677  0.24999998294700354  1.0000
  Pt  Pt2       1.0  0.7500000402281614  0.7499999435922039  0.7499998591562963  1.0000
  V   V1        1.0  1.2581039345449462e-07  0.9999999685892283  0.9999999865459617  1.0000
  I   I1        1.0  0.2510664233669123  0.2510665014974436  0.7489335747497691  1.0000
  I   I2        1.0  0.7489335669584323  0.7489334558050696  0.25106656736888  1.0000
  I   I3        1.0  0.7489335811826255  0.25106642557224745  0.25106648651595764  1.0000
  I   I4        1.0  0.25106646341184263  0.7489335466090512  0.7489335778341474  1.0000
  I   I5        1.0  0.25106637650090174  0.7489335785129235  0.2510664700503  1.0000
  I   I6        1.0  0.7489335221611474  0.25106649947307763  0.7489334982782049  1.0000
