data_image0
_chemical_formula_structural       Pt2VS6
_chemical_formula_sum              "Pt2 V1 S6"
_cell_length_a       5.828998856144087
_cell_length_b       5.828998858730626
_cell_length_c       5.828998787039035
_cell_angle_alpha    60.00000021090253
_cell_angle_beta     60.000000450954836
_cell_angle_gamma    60.000000003180006

_space_group_name_H-M_alt    "P 1"
_space_group_IT_number       1

loop_
  _space_group_symop_operation_xyz
  'x, y, z'

loop_
  _atom_site_type_symbol
  _atom_site_label
  _atom_site_symmetry_multiplicity
  _atom_site_fract_x
  _atom_site_fract_y
  _atom_site_fract_z
  _atom_site_occupancy
  Pt  Pt1       1.0  0.24999986587102577  0.2500000589770183  0.2500000161262967  1.0000
  Pt  Pt2       1.0  0.7500000043928828  0.7500000025377723  0.7499998515542862  1.0000
  V   V1        1.0  1.0725332861568173e-08  0.9999999915955045  0.9999999902617789  1.0000
  S   S1        1.0  0.26696840219708523  0.266968421108407  0.7330315954407163  1.0000
  S   S2        1.0  0.7330316340279182  0.7330315941816575  0.26696840794557797  1.0000
  S   S3        1.0  0.7330316243797103  0.26696838078024065  0.2669684551137089  1.0000
  S   S4        1.0  0.2669684350572042  0.7330315945884699  0.7330316458364521  1.0000
  S   S5        1.0  0.26696837207173907  0.7330315747160339  0.26696843022019123  1.0000
  S   S6        1.0  0.7330316606926257  0.26696837964143816  0.7330315985004767  1.0000
