data_image0
_chemical_formula_structural       Pt2VO6
_chemical_formula_sum              "Pt2 V1 O6"
_cell_length_a       4.762370879606944
_cell_length_b       4.762375051195621
_cell_length_c       4.7623743982394515
_cell_angle_alpha    60.00003845995289
_cell_angle_beta     59.99997664172187
_cell_angle_gamma    59.999976454510325

_space_group_name_H-M_alt    "P 1"
_space_group_IT_number       1

loop_
  _space_group_symop_operation_xyz
  'x, y, z'

loop_
  _atom_site_type_symbol
  _atom_site_label
  _atom_site_symmetry_multiplicity
  _atom_site_fract_x
  _atom_site_fract_y
  _atom_site_fract_z
  _atom_site_occupancy
  Pt  Pt1       1.0  0.24999865689280554  0.25000282687093245  0.25000285419663065  1.0000
  Pt  Pt2       1.0  0.7500010737815742  0.7500038566742533  0.7500026451664108  1.0000
  V   V1        1.0  1.461363432084287e-06  3.173490048603018e-06  2.0816402333697344e-06  1.0000
  O   O1        1.0  0.2629086500951024  0.26290797508284536  0.7370869089149545  1.0000
  O   O2        1.0  0.737092765425186  0.7370905407067602  0.26290640892191264  1.0000
  O   O3        1.0  0.7370921646857264  0.2629086009503456  0.26290776045358294  1.0000
  O   O4        1.0  0.2629040934886825  0.7370899225590264  0.7370921218028311  1.0000
  O   O5        1.0  0.2629068195985765  0.7370881733952547  0.2629102794158574  1.0000
  O   O6        1.0  0.7370932444108506  0.2629051372567913  0.7370895168282708  1.0000
