data_image0
_chemical_formula_structural       Pt2VBr6
_chemical_formula_sum              "Pt2 V1 Br6"
_cell_length_a       6.9697717565217605
_cell_length_b       6.969771988460924
_cell_length_c       6.96977257651872
_cell_angle_alpha    59.99999737286207
_cell_angle_beta     60.00000056983487
_cell_angle_gamma    59.999996641322305

_space_group_name_H-M_alt    "P 1"
_space_group_IT_number       1

loop_
  _space_group_symop_operation_xyz
  'x, y, z'

loop_
  _atom_site_type_symbol
  _atom_site_label
  _atom_site_symmetry_multiplicity
  _atom_site_fract_x
  _atom_site_fract_y
  _atom_site_fract_z
  _atom_site_occupancy
  Pt  Pt1       1.0  0.2500002815245915  0.2500000169138904  0.24999980955309  1.0000
  Pt  Pt2       1.0  0.7499999330067227  0.7500000120827709  0.7500002194209651  1.0000
  V   V1        1.0  0.9999999223348464  0.9999999894566608  0.9999999651920564  1.0000
  Br  Br1       1.0  0.24590761363019706  0.24590767430935526  0.7540923995604824  1.0000
  Br  Br2       1.0  0.7540922819223946  0.7540923722595549  0.24590769259600911  1.0000
  Br  Br3       1.0  0.7540922861965417  0.24590770655210017  0.24590765301735046  1.0000
  Br  Br4       1.0  0.24590769016813896  0.754092301357886  0.7540922989768967  1.0000
  Br  Br5       1.0  0.24590768348874958  0.7540923124959851  0.24590758324156137  1.0000
  Br  Br6       1.0  0.7540922924251728  0.245907632153945  0.7540923690432179  1.0000
