data_image0
_chemical_formula_structural       Pt2VF6
_chemical_formula_sum              "Pt2 V1 F6"
_cell_length_a       5.282454767826347
_cell_length_b       5.282454757290317
_cell_length_c       5.282454725810053
_cell_angle_alpha    59.999998806924125
_cell_angle_beta     59.99999938559249
_cell_angle_gamma    59.99999939466485

_space_group_name_H-M_alt    "P 1"
_space_group_IT_number       1

loop_
  _space_group_symop_operation_xyz
  'x, y, z'

loop_
  _atom_site_type_symbol
  _atom_site_label
  _atom_site_symmetry_multiplicity
  _atom_site_fract_x
  _atom_site_fract_y
  _atom_site_fract_z
  _atom_site_occupancy
  Pt  Pt1       1.0  0.25000011181977705  0.2499999921531298  0.2500000302597387  1.0000
  Pt  Pt2       1.0  0.7499999888911298  0.750000039059287  0.7500000567088553  1.0000
  V   V1        1.0  0.999999961801384  1.6229603107795467e-08  0.99999997501638  1.0000
  F   F1        1.0  0.25227894639777726  0.252278937473665  0.747721058319926  1.0000
  F   F2        1.0  0.7477210323223464  0.7477210334573722  0.25227896455388904  1.0000
  F   F3        1.0  0.7477210439778043  0.25227892503767  0.2522789532345111  1.0000
  F   F4        1.0  0.25227894810026497  0.7477210713970291  0.7477210028820175  1.0000
  F   F5        1.0  0.25227895172936865  0.7477210474215427  0.25227892299571214  1.0000
  F   F6        1.0  0.747721011291545  0.2522789443761269  0.7477210575401465  1.0000
