data_image0
_chemical_formula_structural       Pt2VCl6
_chemical_formula_sum              "Pt2 V1 Cl6"
_cell_length_a       6.501715418046985
_cell_length_b       6.501715490344503
_cell_length_c       6.501715470175296
_cell_angle_alpha    59.99999918329304
_cell_angle_beta     59.99999896386989
_cell_angle_gamma    59.99999702974964

_space_group_name_H-M_alt    "P 1"
_space_group_IT_number       1

loop_
  _space_group_symop_operation_xyz
  'x, y, z'

loop_
  _atom_site_type_symbol
  _atom_site_label
  _atom_site_symmetry_multiplicity
  _atom_site_fract_x
  _atom_site_fract_y
  _atom_site_fract_z
  _atom_site_occupancy
  Pt  Pt1       1.0  0.24999996427659354  0.24999994084425056  0.25000022341609307  1.0000
  Pt  Pt2       1.0  0.7500001772565175  0.7499999016492279  0.750000097810544  1.0000
  V   V1        1.0  0.9999999802855748  0.9999999472556802  0.9999999377938135  1.0000
  Cl  Cl1       1.0  0.2471044526199985  0.2471045791091519  0.7528954240439081  1.0000
  Cl  Cl2       1.0  0.7528955413392753  0.7528955515943746  0.24710439620904942  1.0000
  Cl  Cl3       1.0  0.7528955403148138  0.247104498440193  0.24710442138127683  1.0000
  Cl  Cl4       1.0  0.24710439729904432  0.7528955135886121  0.7528955602084202  1.0000
  Cl  Cl5       1.0  0.24710440410512266  0.7528955795493562  0.24710441606505332  1.0000
  Cl  Cl6       1.0  0.7528955783025375  0.24710447392141419  0.752895516254537  1.0000
