data_image0
_chemical_formula_structural       Pt2ZnBr6
_chemical_formula_sum              "Pt2 Zn1 Br6"
_cell_length_a       6.944645134460683
_cell_length_b       6.944645171702403
_cell_length_c       6.944645338269133
_cell_angle_alpha    60.00000118986078
_cell_angle_beta     59.99999981337455
_cell_angle_gamma    59.999996843493236

_space_group_name_H-M_alt    "P 1"
_space_group_IT_number       1

loop_
  _space_group_symop_operation_xyz
  'x, y, z'

loop_
  _atom_site_type_symbol
  _atom_site_label
  _atom_site_symmetry_multiplicity
  _atom_site_fract_x
  _atom_site_fract_y
  _atom_site_fract_z
  _atom_site_occupancy
  Pt  Pt1       1.0  0.2499998883034711  0.2499998068025525  0.2500003507547884  1.0000
  Pt  Pt2       1.0  0.7500001213314487  0.7499996673090545  0.750000052621901  1.0000
  Zn  Zn1       1.0  1.2091432527782629e-08  6.34889373842691e-08  0.9999999060514406  1.0000
  Br  Br1       1.0  0.253660335809118  0.2536605075024531  0.7463394816617352  1.0000
  Br  Br2       1.0  0.7463394839957633  0.7463396208979454  0.2536604403727926  1.0000
  Br  Br3       1.0  0.7463395881251276  0.25366059605285335  0.25366032715214754  1.0000
  Br  Br4       1.0  0.2536604367303486  0.74633962052662  0.7463395389849238  1.0000
  Br  Br5       1.0  0.2536604349680011  0.7463396091461075  0.2536604347678445  1.0000
  Br  Br6       1.0  0.7463396943046622  0.25366050867279033  0.7463394760595453  1.0000
