data_image0
_chemical_formula_structural       Rb2CCl6
_chemical_formula_sum              "Rb2 C1 Cl6"
_cell_length_a       7.4254470204951835
_cell_length_b       7.425449664399969
_cell_length_c       7.425448747877944
_cell_angle_alpha    60.00001028683334
_cell_angle_beta     59.999993498687026
_cell_angle_gamma    60.00001704647231

_space_group_name_H-M_alt    "P 1"
_space_group_IT_number       1

loop_
  _space_group_symop_operation_xyz
  'x, y, z'

loop_
  _atom_site_type_symbol
  _atom_site_label
  _atom_site_symmetry_multiplicity
  _atom_site_fract_x
  _atom_site_fract_y
  _atom_site_fract_z
  _atom_site_occupancy
  Rb  Rb1       1.0  0.250000564872728  0.2500003048865717  0.2499994250410896  1.0000
  Rb  Rb2       1.0  0.7500006860645189  0.7499997369967543  0.7499998409302217  1.0000
  C   C1        1.0  6.625627758476338e-07  1.303016594707596e-07  0.9999991106682911  1.0000
  Cl  Cl1       1.0  0.20714886536161153  0.20714979105752346  0.7928505489857605  1.0000
  Cl  Cl2       1.0  0.7928502155521794  0.7928489560561706  0.20715029181577968  1.0000
  Cl  Cl3       1.0  0.7928499900965468  0.2071500696147607  0.20715086344819153  1.0000
  Cl  Cl4       1.0  0.207149645201949  0.7928506485175143  0.7928499172727225  1.0000
  Cl  Cl5       1.0  0.20714942573911443  0.7928507072829671  0.20715028199912353  1.0000
  Cl  Cl6       1.0  0.7928500984495889  0.2071496397369663  0.7928496624568755  1.0000
