data_image0
_chemical_formula_structural       Rb2CoBr6
_chemical_formula_sum              "Rb2 Co1 Br6"
_cell_length_a       7.403104860198598
_cell_length_b       7.403104713519074
_cell_length_c       7.403105064319053
_cell_angle_alpha    60.000000326080794
_cell_angle_beta     59.99999693286471
_cell_angle_gamma    59.99999741943643

_space_group_name_H-M_alt    "P 1"
_space_group_IT_number       1

loop_
  _space_group_symop_operation_xyz
  'x, y, z'

loop_
  _atom_site_type_symbol
  _atom_site_label
  _atom_site_symmetry_multiplicity
  _atom_site_fract_x
  _atom_site_fract_y
  _atom_site_fract_z
  _atom_site_occupancy
  Rb  Rb1       1.0  0.24999996826532256  0.2500000361222878  0.25000001052832066  1.0000
  Rb  Rb2       1.0  0.7500000076477593  0.7499999495476708  0.7499999744692313  1.0000
  Co  Co1       1.0  7.527902195763781e-08  0.9999999238991277  0.9999996708194908  1.0000
  Br  Br1       1.0  0.2375957210033154  0.2375958606775262  0.7624041662323454  1.0000
  Br  Br2       1.0  0.7624042228794302  0.7624041415360991  0.2375958562258023  1.0000
  Br  Br3       1.0  0.7624042717114976  0.23759586308285427  0.23759577864378661  1.0000
  Br  Br4       1.0  0.23759571935570048  0.7624042549364335  0.7624043433244354  1.0000
  Br  Br5       1.0  0.23759572607080737  0.76240415667879  0.23759585993870472  1.0000
  Br  Br6       1.0  0.7624043067340167  0.2375958174106074  0.7624043050209394  1.0000
