data_image0
_chemical_formula_structural       Rb2CoCl6
_chemical_formula_sum              "Rb2 Co1 Cl6"
_cell_length_a       7.064023140525009
_cell_length_b       7.064023041152198
_cell_length_c       7.064023541504871
_cell_angle_alpha    59.99999712615728
_cell_angle_beta     60.00000241299872
_cell_angle_gamma    59.99999717137523

_space_group_name_H-M_alt    "P 1"
_space_group_IT_number       1

loop_
  _space_group_symop_operation_xyz
  'x, y, z'

loop_
  _atom_site_type_symbol
  _atom_site_label
  _atom_site_symmetry_multiplicity
  _atom_site_fract_x
  _atom_site_fract_y
  _atom_site_fract_z
  _atom_site_occupancy
  Rb  Rb1       1.0  0.24999991772321067  0.2500000446617071  0.2500000512862195  1.0000
  Rb  Rb2       1.0  0.7499999071555623  0.7500000594326567  0.7500000575169782  1.0000
  Co  Co1       1.0  6.726884103792714e-08  0.9999999011746413  0.999999987465785  1.0000
  Cl  Cl1       1.0  0.22587040156486857  0.2258702502484045  0.7741296972861227  1.0000
  Cl  Cl2       1.0  0.7741297014348523  0.7741296128507825  0.22587039153857547  1.0000
  Cl  Cl3       1.0  0.7741297561146847  0.22587023970418457  0.22587047389739992  1.0000
  Cl  Cl4       1.0  0.225870295613893  0.774129826247057  0.7741294273025583  1.0000
  Cl  Cl5       1.0  0.2258702822606889  0.7741298540391338  0.22587030298865252  1.0000
  Cl  Cl6       1.0  0.774129696173352  0.2258702552565664  0.7741295169239223  1.0000
