data_image0
_chemical_formula_structural       Rb2CrI6
_chemical_formula_sum              "Rb2 Cr1 I6"
_cell_length_a       8.169633767898164
_cell_length_b       8.169633124980848
_cell_length_c       8.1696346634167
_cell_angle_alpha    59.99999748779537
_cell_angle_beta     59.99999720972884
_cell_angle_gamma    60.00000455928414

_space_group_name_H-M_alt    "P 1"
_space_group_IT_number       1

loop_
  _space_group_symop_operation_xyz
  'x, y, z'

loop_
  _atom_site_type_symbol
  _atom_site_label
  _atom_site_symmetry_multiplicity
  _atom_site_fract_x
  _atom_site_fract_y
  _atom_site_fract_z
  _atom_site_occupancy
  Rb  Rb1       1.0  0.2500000350325642  0.24999998127623982  0.250000034511823  1.0000
  Rb  Rb2       1.0  0.7499999671399874  0.7499999888029929  0.749999984781118  1.0000
  Cr  Cr1       1.0  0.9999998200246882  9.894342657808424e-08  4.541212402011019e-08  1.0000
  I   I1        1.0  0.23474494685157096  0.23474514095145857  0.7652549711017174  1.0000
  I   I2        1.0  0.7652551967447532  0.7652549730455205  0.23474491531282873  1.0000
  I   I3        1.0  0.7652549435603692  0.23474493484828188  0.2347450097029712  1.0000
  I   I4        1.0  0.23474512285971713  0.765254927292653  0.7652549494243376  1.0000
  I   I5        1.0  0.23474503295539612  0.765254980071564  0.23474502738862144  1.0000
  I   I6        1.0  0.7652549330540634  0.23474498401109503  0.7652550582738152  1.0000
