data_image0
_chemical_formula_structural       Rb2CrBr6
_chemical_formula_sum              "Rb2 Cr1 Br6"
_cell_length_a       7.5378770341276455
_cell_length_b       7.537877074837838
_cell_length_c       7.537876611749184
_cell_angle_alpha    60.00000242375523
_cell_angle_beta     60.00000265658133
_cell_angle_gamma    59.999997929285215

_space_group_name_H-M_alt    "P 1"
_space_group_IT_number       1

loop_
  _space_group_symop_operation_xyz
  'x, y, z'

loop_
  _atom_site_type_symbol
  _atom_site_label
  _atom_site_symmetry_multiplicity
  _atom_site_fract_x
  _atom_site_fract_y
  _atom_site_fract_z
  _atom_site_occupancy
  Rb  Rb1       1.0  0.24999998715721355  0.24999999626787137  0.24999997394585166  1.0000
  Rb  Rb2       1.0  0.7500000362701703  0.7499999758053109  0.750000055440002  1.0000
  Cr  Cr1       1.0  9.978617567344882e-08  9.586245902823571e-08  0.9999997283866886  1.0000
  Br  Br1       1.0  0.2333644151238995  0.2333644969466487  0.7666354914473655  1.0000
  Br  Br2       1.0  0.7666355663086257  0.7666354816256852  0.23336438587724728  1.0000
  Br  Br3       1.0  0.7666356648812982  0.23336431590704157  0.23336417500718692  1.0000
  Br  Br4       1.0  0.23336424650225235  0.7666357211576464  0.7666359853621476  1.0000
  Br  Br5       1.0  0.23336434988512275  0.7666356554174685  0.23336415047863768  1.0000
  Br  Br6       1.0  0.7666356652803092  0.23336426791208864  0.7666359962944521  1.0000
