data_image0
_chemical_formula_structural       Rb2CrCl6
_chemical_formula_sum              "Rb2 Cr1 Cl6"
_cell_length_a       7.198656203884458
_cell_length_b       7.198655909717829
_cell_length_c       7.198656261645504
_cell_angle_alpha    60.0000007393452
_cell_angle_beta     60.00000035927869
_cell_angle_gamma    59.99999475895799

_space_group_name_H-M_alt    "P 1"
_space_group_IT_number       1

loop_
  _space_group_symop_operation_xyz
  'x, y, z'

loop_
  _atom_site_type_symbol
  _atom_site_label
  _atom_site_symmetry_multiplicity
  _atom_site_fract_x
  _atom_site_fract_y
  _atom_site_fract_z
  _atom_site_occupancy
  Rb  Rb1       1.0  0.2499999377470936  0.2500001459028602  0.25000008177102817  1.0000
  Rb  Rb2       1.0  0.7499999778164759  0.7500000787232536  0.7500000077334419  1.0000
  Cr  Cr1       1.0  0.9999999646775038  5.784597706623442e-08  3.0412704810457986e-08  1.0000
  Cl  Cl1       1.0  0.22928542226234125  0.2292855159448546  0.7707144997159536  1.0000
  Cl  Cl2       1.0  0.7707145519590237  0.7707144364649028  0.22928550903279227  1.0000
  Cl  Cl3       1.0  0.7707147022396894  0.22928534939277012  0.22928537062098558  1.0000
  Cl  Cl4       1.0  0.22928544047372734  0.7707144873250263  0.770714481147788  1.0000
  Cl  Cl5       1.0  0.22928539264142228  0.7707145387905717  0.2292854767037979  1.0000
  Cl  Cl6       1.0  0.7707146413524005  0.22928533535698176  0.7707145329549309  1.0000
