data_image0
_chemical_formula_structural       Rb2CrF6
_chemical_formula_sum              "Rb2 Cr1 F6"
_cell_length_a       6.340420405370906
_cell_length_b       6.340420393295372
_cell_length_c       6.34041957120806
_cell_angle_alpha    60.00000360629715
_cell_angle_beta     60.00000476438664
_cell_angle_gamma    60.00000065174887

_space_group_name_H-M_alt    "P 1"
_space_group_IT_number       1

loop_
  _space_group_symop_operation_xyz
  'x, y, z'

loop_
  _atom_site_type_symbol
  _atom_site_label
  _atom_site_symmetry_multiplicity
  _atom_site_fract_x
  _atom_site_fract_y
  _atom_site_fract_z
  _atom_site_occupancy
  Rb  Rb1       1.0  0.2499999953996834  0.25000014664736314  0.2499999181185744  1.0000
  Rb  Rb2       1.0  0.75000006955986  0.7499998565849643  0.7499998608302593  1.0000
  Cr  Cr1       1.0  0.999999982817175  7.340255202203488e-08  2.2359982184736583e-08  1.0000
  F   F1        1.0  0.20873244855071263  0.20873241873300613  0.791267562586637  1.0000
  F   F2        1.0  0.7912676341250671  0.7912675149600589  0.2087324630792869  1.0000
  F   F3        1.0  0.7912674735197174  0.2087324918626451  0.20873243924672036  1.0000
  F   F4        1.0  0.20873245280970498  0.791267522959559  0.7912677044641289  1.0000
  F   F5        1.0  0.20873246028421374  0.7912674878114195  0.20873237998164418  1.0000
  F   F6        1.0  0.7912674648679165  0.20873252507913953  0.7912676501493374  1.0000
