data_image0
_chemical_formula_structural       Rb2CoI6
_chemical_formula_sum              "Rb2 Co1 I6"
_cell_length_a       8.09929948910207
_cell_length_b       8.099299463561985
_cell_length_c       8.099299346537986
_cell_angle_alpha    60.00000046669824
_cell_angle_beta     60.00000095801935
_cell_angle_gamma    59.999999586840524

_space_group_name_H-M_alt    "P 1"
_space_group_IT_number       1

loop_
  _space_group_symop_operation_xyz
  'x, y, z'

loop_
  _atom_site_type_symbol
  _atom_site_label
  _atom_site_symmetry_multiplicity
  _atom_site_fract_x
  _atom_site_fract_y
  _atom_site_fract_z
  _atom_site_occupancy
  Rb  Rb1       1.0  0.24999998664889095  0.2499999832732083  0.24999999927322156  1.0000
  Rb  Rb2       1.0  0.7500000156766231  0.7500000178668912  0.7500000075421894  1.0000
  Co  Co1       1.0  9.404058870969502e-09  0.9999999803419006  0.9999999866068997  1.0000
  I   I1        1.0  0.23524646247651165  0.23524635227373533  0.7647535949350135  1.0000
  I   I2        1.0  0.7647535563666205  0.76475365491501  0.23524638825051858  1.0000
  I   I3        1.0  0.7647536165496484  0.2352463557181381  0.23524646453253964  1.0000
  I   I4        1.0  0.23524636715554992  0.764753649958446  0.764753556732835  1.0000
  I   I5        1.0  0.23524637410863666  0.7647536401927272  0.23524643085496677  1.0000
  I   I6        1.0  0.7647536095965616  0.23524636548385697  0.764753569420938  1.0000
