data_image0
_chemical_formula_structural       Rb2CBr6
_chemical_formula_sum              "Rb2 C1 Br6"
_cell_length_a       7.764484179082837
_cell_length_b       7.76448759625748
_cell_length_c       7.764485935370964
_cell_angle_alpha    59.99999704811529
_cell_angle_beta     60.000000784741914
_cell_angle_gamma    60.00000946477611

_space_group_name_H-M_alt    "P 1"
_space_group_IT_number       1

loop_
  _space_group_symop_operation_xyz
  'x, y, z'

loop_
  _atom_site_type_symbol
  _atom_site_label
  _atom_site_symmetry_multiplicity
  _atom_site_fract_x
  _atom_site_fract_y
  _atom_site_fract_z
  _atom_site_occupancy
  Rb  Rb1       1.0  0.25000017440968814  0.24999996160442184  0.24999990449406723  1.0000
  Rb  Rb2       1.0  0.7499997518843146  0.7500002491850465  0.7500000431843069  1.0000
  C   C1        1.0  0.9999997092827566  3.785679406558852e-08  1.8052264498453343e-07  1.0000
  Br  Br1       1.0  0.21631205903042297  0.21631132552645072  0.7836882255887304  1.0000
  Br  Br2       1.0  0.7836887414772902  0.783688533510194  0.21631122774661765  1.0000
  Br  Br3       1.0  0.78368772951968  0.21631182627793052  0.21631169580230902  1.0000
  Br  Br4       1.0  0.21631219825390463  0.7836879428486908  0.7836886265175635  1.0000
  Br  Br5       1.0  0.21631176194065388  0.78368832477197  0.21631125401480591  1.0000
  Br  Br6       1.0  0.7836879663836934  0.2163117393223507  0.7836887784177301  1.0000
