data_image0
_chemical_formula_structural       Rb2FeCl6
_chemical_formula_sum              "Rb2 Fe1 Cl6"
_cell_length_a       7.12017250107708
_cell_length_b       7.12017204873008
_cell_length_c       7.120172106558242
_cell_angle_alpha    60.000000830533
_cell_angle_beta     60.00000076287914
_cell_angle_gamma    59.99999820881137

_space_group_name_H-M_alt    "P 1"
_space_group_IT_number       1

loop_
  _space_group_symop_operation_xyz
  'x, y, z'

loop_
  _atom_site_type_symbol
  _atom_site_label
  _atom_site_symmetry_multiplicity
  _atom_site_fract_x
  _atom_site_fract_y
  _atom_site_fract_z
  _atom_site_occupancy
  Rb  Rb1       1.0  0.2500001599900098  0.2499998537543358  0.24999996603765937  1.0000
  Rb  Rb2       1.0  0.7499999340956992  0.7499999242053259  0.750000030308344  1.0000
  Fe  Fe1       1.0  0.999999350472819  0.9999999587174697  2.1479004029383728e-07  1.0000
  Cl  Cl1       1.0  0.22730080265605862  0.2273007725573317  0.7726991932643574  1.0000
  Cl  Cl2       1.0  0.7726992206916833  0.7726992565377684  0.22730071569183394  1.0000
  Cl  Cl3       1.0  0.7726991730472808  0.22730091665491525  0.2273006708413964  1.0000
  Cl  Cl4       1.0  0.22730109411662044  0.7726991399618715  0.7726990027291794  1.0000
  Cl  Cl5       1.0  0.227300980333467  0.7726992702891158  0.2273007215104545  1.0000
  Cl  Cl6       1.0  0.7726993035704668  0.2273008723329663  0.7726994385958038  1.0000
