data_image0
_chemical_formula_structural       Rb2FeF6
_chemical_formula_sum              "Rb2 Fe1 F6"
_cell_length_a       6.421240848999169
_cell_length_b       6.421239277666145
_cell_length_c       6.421240579021889
_cell_angle_alpha    59.99999697830775
_cell_angle_beta     59.99999882543134
_cell_angle_gamma    59.99998914413226

_space_group_name_H-M_alt    "P 1"
_space_group_IT_number       1

loop_
  _space_group_symop_operation_xyz
  'x, y, z'

loop_
  _atom_site_type_symbol
  _atom_site_label
  _atom_site_symmetry_multiplicity
  _atom_site_fract_x
  _atom_site_fract_y
  _atom_site_fract_z
  _atom_site_occupancy
  Rb  Rb1       1.0  0.24999996004696462  0.25000007790993395  0.2499999536188496  1.0000
  Rb  Rb2       1.0  0.7500000764278463  0.7499999361856754  0.7500005126150694  1.0000
  Fe  Fe1       1.0  0.9999999924797456  1.716600781781763e-08  0.9999999749318149  1.0000
  F   F1        1.0  0.21129811524354894  0.21129823934309558  0.7887018402160418  1.0000
  F   F2        1.0  0.7887018332634885  0.7887017041811224  0.21129815243478917  1.0000
  F   F3        1.0  0.7887018672781216  0.21129830363106997  0.21129791893599886  1.0000
  F   F4        1.0  0.21129810618627418  0.7887016513371471  0.788701957402271  1.0000
  F   F5        1.0  0.21129835911631906  0.788701730354452  0.21129802585207152  1.0000
  F   F6        1.0  0.7887016928166413  0.21129825894577847  0.7887018158885495  1.0000
