data_image0
_chemical_formula_structural       Rb2FeBr6
_chemical_formula_sum              "Rb2 Fe1 Br6"
_cell_length_a       7.513266353277123
_cell_length_b       7.513267553064674
_cell_length_c       7.513265412498169
_cell_angle_alpha    59.999998395371954
_cell_angle_beta     60.00000056343128
_cell_angle_gamma    59.99999728783924

_space_group_name_H-M_alt    "P 1"
_space_group_IT_number       1

loop_
  _space_group_symop_operation_xyz
  'x, y, z'

loop_
  _atom_site_type_symbol
  _atom_site_label
  _atom_site_symmetry_multiplicity
  _atom_site_fract_x
  _atom_site_fract_y
  _atom_site_fract_z
  _atom_site_occupancy
  Rb  Rb1       1.0  0.25000001305295216  0.25000012149927175  0.24999994289079325  1.0000
  Rb  Rb2       1.0  0.749999993912922  0.7499999700113024  0.7500001643338282  1.0000
  Fe  Fe1       1.0  2.0790501487757476e-07  5.151145120656382e-07  3.8516952005647593e-07  1.0000
  Br  Br1       1.0  0.21680299900196295  0.21680313665777093  0.7831965884677885  1.0000
  Br  Br2       1.0  0.7831976257398343  0.7831971993693357  0.21680185113088987  1.0000
  Br  Br3       1.0  0.7831964424043402  0.21680337314752413  0.21680272987878652  1.0000
  Br  Br4       1.0  0.21680172544590076  0.7831973622563966  0.7831980494918094  1.0000
  Br  Br5       1.0  0.21680321941419756  0.7831964457174799  0.21680255225422515  1.0000
  Br  Br6       1.0  0.783197777954622  0.21680189179522386  0.7831977730575362  1.0000
