data_image0
_chemical_formula_structural       Rb2GeF6
_chemical_formula_sum              "Rb2 Ge1 F6"
_cell_length_a       6.230183640218649
_cell_length_b       6.230183515382793
_cell_length_c       6.230183502780785
_cell_angle_alpha    60.00000270378854
_cell_angle_beta     59.999999131980516
_cell_angle_gamma    60.00000125843976

_space_group_name_H-M_alt    "P 1"
_space_group_IT_number       1

loop_
  _space_group_symop_operation_xyz
  'x, y, z'

loop_
  _atom_site_type_symbol
  _atom_site_label
  _atom_site_symmetry_multiplicity
  _atom_site_fract_x
  _atom_site_fract_y
  _atom_site_fract_z
  _atom_site_occupancy
  Rb  Rb1       1.0  0.2500000225063573  0.2500001696827636  0.2500000372628666  1.0000
  Rb  Rb2       1.0  0.7500000233461787  0.7499999743439655  0.7499998458663498  1.0000
  Ge  Ge1       1.0  0.9999999600475205  8.649628622416281e-08  2.4880773669018647e-08  1.0000
  F   F1        1.0  0.2082831470488525  0.20828310800463673  0.791716717968941  1.0000
  F   F2        1.0  0.7917170214684942  0.7917168237130305  0.20828320837730624  1.0000
  F   F3        1.0  0.7917166879950547  0.20828313937048862  0.2082831672777446  1.0000
  F   F4        1.0  0.20828307773436136  0.79171688867259  0.7917170583628825  1.0000
  F   F5        1.0  0.20828322097513824  0.7917165649729235  0.20828327246690542  1.0000
  F   F6        1.0  0.7917167261463817  0.2082833136674749  0.7917167285174143  1.0000
