data_image0
_chemical_formula_structural       Rb2GeBr6
_chemical_formula_sum              "Rb2 Ge1 Br6"
_cell_length_a       7.587893069453173
_cell_length_b       7.587892702746446
_cell_length_c       7.587892774130359
_cell_angle_alpha    59.99999859409078
_cell_angle_beta     60.000001460301576
_cell_angle_gamma    59.999998576095514

_space_group_name_H-M_alt    "P 1"
_space_group_IT_number       1

loop_
  _space_group_symop_operation_xyz
  'x, y, z'

loop_
  _atom_site_type_symbol
  _atom_site_label
  _atom_site_symmetry_multiplicity
  _atom_site_fract_x
  _atom_site_fract_y
  _atom_site_fract_z
  _atom_site_occupancy
  Rb  Rb1       1.0  0.250000036249065  0.24999993582981567  0.2500000271023398  1.0000
  Rb  Rb2       1.0  0.7499999686020817  0.7500000544433487  0.7499999554187312  1.0000
  Ge  Ge1       1.0  2.293465506571969e-08  0.9999999677184432  9.033623255176402e-08  1.0000
  Br  Br1       1.0  0.2335907427542513  0.23359052378591705  0.766409426498912  1.0000
  Br  Br2       1.0  0.7664093202932855  0.7664094471183116  0.23359070134455015  1.0000
  Br  Br3       1.0  0.7664094381794941  0.2335904939878478  0.23359060624354694  1.0000
  Br  Br4       1.0  0.23359058669987778  0.7664095366372617  0.7664092881003249  1.0000
  Br  Br5       1.0  0.23359050468924591  0.7664095242285152  0.23359052904224098  1.0000
  Br  Br6       1.0  0.7664093948672066  0.233590508010673  0.7664093968446054  1.0000
