data_image0
_chemical_formula_structural       Rb2HfBr6
_chemical_formula_sum              "Rb2 Hf1 Br6"
_cell_length_a       7.746561526404293
_cell_length_b       7.746561286886448
_cell_length_c       7.74656170870428
_cell_angle_alpha    59.99999921870142
_cell_angle_beta     59.999998087074744
_cell_angle_gamma    60.00000247713067

_space_group_name_H-M_alt    "P 1"
_space_group_IT_number       1

loop_
  _space_group_symop_operation_xyz
  'x, y, z'

loop_
  _atom_site_type_symbol
  _atom_site_label
  _atom_site_symmetry_multiplicity
  _atom_site_fract_x
  _atom_site_fract_y
  _atom_site_fract_z
  _atom_site_occupancy
  Rb  Rb1       1.0  0.25000002635026924  0.24999999517012592  0.2500000155704706  1.0000
  Rb  Rb2       1.0  0.7499999618800053  0.750000032940895  0.7499999731463516  1.0000
  Hf  Hf1       1.0  0.9999999215253358  0.9999999984189804  1.0715439754577965e-07  1.0000
  Br  Br1       1.0  0.23979812208227352  0.23979801950906784  0.7602019136733594  1.0000
  Br  Br2       1.0  0.7602019426954811  0.7602020070209384  0.23979801561500955  1.0000
  Br  Br3       1.0  0.7602017530608289  0.23979821269403745  0.23979819589262436  1.0000
  Br  Br4       1.0  0.23979829749042672  0.7602017000027106  0.7602017754804024  1.0000
  Br  Br5       1.0  0.23979826222262116  0.7602017565763194  0.2397982088253256  1.0000
  Br  Br6       1.0  0.7602017167179016  0.23979826362961415  0.7602018052705549  1.0000
