data_image0
_chemical_formula_structural       Rb2HfCl6
_chemical_formula_sum              "Rb2 Hf1 Cl6"
_cell_length_a       7.344275128015163
_cell_length_b       7.344275252243355
_cell_length_c       7.344274790007356
_cell_angle_alpha    60.000003108429134
_cell_angle_beta     59.99999973856463
_cell_angle_gamma    59.99999699222938

_space_group_name_H-M_alt    "P 1"
_space_group_IT_number       1

loop_
  _space_group_symop_operation_xyz
  'x, y, z'

loop_
  _atom_site_type_symbol
  _atom_site_label
  _atom_site_symmetry_multiplicity
  _atom_site_fract_x
  _atom_site_fract_y
  _atom_site_fract_z
  _atom_site_occupancy
  Rb  Rb1       1.0  0.2500000487461129  0.25000001434726615  0.24999996089452647  1.0000
  Rb  Rb2       1.0  0.7499999837902425  0.7499999596608882  0.7500000232989469  1.0000
  Hf  Hf1       1.0  1.4402248228661175e-07  2.8015987133665975e-07  0.9999992214812157  1.0000
  Cl  Cl1       1.0  0.23679074771470401  0.2367907656204077  0.763209217467108  1.0000
  Cl  Cl2       1.0  0.7632090224038851  0.7632089532421465  0.23679098465990547  1.0000
  Cl  Cl3       1.0  0.7632091976250736  0.23679085221828466  0.23679071107931768  1.0000
  Cl  Cl4       1.0  0.23679049584006656  0.7632094786602293  0.7632095732988866  1.0000
  Cl  Cl5       1.0  0.2367909147609901  0.7632090804311916  0.23679083672821424  1.0000
  Cl  Cl6       1.0  0.763209441440141  0.23679063009324583  0.7632094618607445  1.0000
