data_image0
_chemical_formula_structural       Rb2HfF6
_chemical_formula_sum              "Rb2 Hf1 F6"
_cell_length_a       6.430718637236335
_cell_length_b       6.430718102847674
_cell_length_c       6.43071811483039
_cell_angle_alpha    59.99999992873161
_cell_angle_beta     60.000001596603155
_cell_angle_gamma    60.00000181876036

_space_group_name_H-M_alt    "P 1"
_space_group_IT_number       1

loop_
  _space_group_symop_operation_xyz
  'x, y, z'

loop_
  _atom_site_type_symbol
  _atom_site_label
  _atom_site_symmetry_multiplicity
  _atom_site_fract_x
  _atom_site_fract_y
  _atom_site_fract_z
  _atom_site_occupancy
  Rb  Rb1       1.0  0.2499999253034998  0.25000008023551706  0.2500000188791236  1.0000
  Rb  Rb2       1.0  0.7500000345891783  0.7500000464452421  0.7499999793326316  1.0000
  Hf  Hf1       1.0  3.4822812024703373e-09  5.713568079992092e-09  0.9999999456409142  1.0000
  F   F1        1.0  0.22067510107157132  0.2206750307772752  0.7793249485948227  1.0000
  F   F2        1.0  0.7793250141702321  0.7793249530642852  0.22067505580225827  1.0000
  F   F3        1.0  0.7793248800986537  0.22067505603771762  0.22067502278543533  1.0000
  F   F4        1.0  0.22067504682288439  0.7793249163766998  0.7793250208389362  1.0000
  F   F5        1.0  0.22067512811050025  0.7793248417634381  0.22067501359084182  1.0000
  F   F6        1.0  0.7793248826068224  0.22067506780173235  0.779324974464208  1.0000
