data_image0
_chemical_formula_structural       Rb2HfI6
_chemical_formula_sum              "Rb2 Hf1 I6"
_cell_length_a       8.399421673942046
_cell_length_b       8.399421378000163
_cell_length_c       8.399421009109895
_cell_angle_alpha    60.00000250237591
_cell_angle_beta     60.00000088584703
_cell_angle_gamma    59.99999837120439

_space_group_name_H-M_alt    "P 1"
_space_group_IT_number       1

loop_
  _space_group_symop_operation_xyz
  'x, y, z'

loop_
  _atom_site_type_symbol
  _atom_site_label
  _atom_site_symmetry_multiplicity
  _atom_site_fract_x
  _atom_site_fract_y
  _atom_site_fract_z
  _atom_site_occupancy
  Rb  Rb1       1.0  0.2499999496382714  0.2500000223339934  0.25000003718300173  1.0000
  Rb  Rb2       1.0  0.7500000520163369  0.7499999897210808  0.7499999426790059  1.0000
  Hf  Hf1       1.0  0.9999999597299487  0.9999999970837361  0.9999997513364347  1.0000
  I   I1        1.0  0.2408856399581371  0.24088562114854645  0.7591143647376996  1.0000
  I   I2        1.0  0.7591144085900433  0.759114406945957  0.24088559318227315  1.0000
  I   I3        1.0  0.7591145078108346  0.2408854766070427  0.24088547070753916  1.0000
  I   I4        1.0  0.24088538591844105  0.7591146200195793  0.7591146863189602  1.0000
  I   I5        1.0  0.24088548863671286  0.7591144792292748  0.24088545535321979  1.0000
  I   I6        1.0  0.7591146111961957  0.2408853826384063  0.7591146945708804  1.0000
