data_image0
_chemical_formula_structural       Rb2IrCl6
_chemical_formula_sum              "Rb2 Ir1 Cl6"
_cell_length_a       7.208144057785893
_cell_length_b       7.208144222385105
_cell_length_c       7.2081444935665715
_cell_angle_alpha    59.99999959819378
_cell_angle_beta     59.99999891058372
_cell_angle_gamma    59.99999916039608

_space_group_name_H-M_alt    "P 1"
_space_group_IT_number       1

loop_
  _space_group_symop_operation_xyz
  'x, y, z'

loop_
  _atom_site_type_symbol
  _atom_site_label
  _atom_site_symmetry_multiplicity
  _atom_site_fract_x
  _atom_site_fract_y
  _atom_site_fract_z
  _atom_site_occupancy
  Rb  Rb1       1.0  0.2499999790914848  0.2500000205737039  0.25000002751051464  1.0000
  Rb  Rb2       1.0  0.7499999947999193  0.7499999852610432  0.750000007372351  1.0000
  Ir  Ir1       1.0  4.8641206467622424e-08  0.9999999694159722  0.9999999382532667  1.0000
  Cl  Cl1       1.0  0.23043205983963533  0.23043217303102836  0.7695679416158011  1.0000
  Cl  Cl2       1.0  0.7695678898116677  0.7695678718833096  0.23043218157237083  1.0000
  Cl  Cl3       1.0  0.7695679126097325  0.23043211360852334  0.23043214504851067  1.0000
  Cl  Cl4       1.0  0.23043210566676042  0.7695678888279974  0.7695677930383471  1.0000
  Cl  Cl5       1.0  0.23043207251484735  0.7695678821342353  0.23043218333160476  1.0000
  Cl  Cl6       1.0  0.7695679293535619  0.23043214069163684  0.7695677472153407  1.0000
