data_image0
_chemical_formula_structural       Rb2IrF6
_chemical_formula_sum              "Rb2 Ir1 F6"
_cell_length_a       6.219039678658372
_cell_length_b       6.219039828761554
_cell_length_c       6.219040116247151
_cell_angle_alpha    60.000000136307975
_cell_angle_beta     59.99999956839422
_cell_angle_gamma    60.000001725243244

_space_group_name_H-M_alt    "P 1"
_space_group_IT_number       1

loop_
  _space_group_symop_operation_xyz
  'x, y, z'

loop_
  _atom_site_type_symbol
  _atom_site_label
  _atom_site_symmetry_multiplicity
  _atom_site_fract_x
  _atom_site_fract_y
  _atom_site_fract_z
  _atom_site_occupancy
  Rb  Rb1       1.0  0.2499999424816734  0.2500000505753109  0.2500000297977256  1.0000
  Rb  Rb2       1.0  0.7499999603629777  0.7499999646379524  0.7500001470295261  1.0000
  Ir  Ir1       1.0  0.9999999668976316  1.5754776861538535e-08  0.9999999974180391  1.0000
  F   F1        1.0  0.22400303519826553  0.22400301498846625  0.7759970040507794  1.0000
  F   F2        1.0  0.7759970388023619  0.7759969825006732  0.22400295777554224  1.0000
  F   F3        1.0  0.7759968889924017  0.22400315005322669  0.2240030778236432  1.0000
  F   F4        1.0  0.22400313189382276  0.7759969065163269  0.775996819916996  1.0000
  F   F5        1.0  0.22400319565503246  0.7759967838577915  0.22400314039573602  1.0000
  F   F6        1.0  0.7759968369926155  0.22400314273484792  0.7759968212765426  1.0000
