data_image0
_chemical_formula_structural       Rb2IrBr6
_chemical_formula_sum              "Rb2 Ir1 Br6"
_cell_length_a       7.508591012380665
_cell_length_b       7.508590850709349
_cell_length_c       7.508591421568089
_cell_angle_alpha    60.00000042977358
_cell_angle_beta     59.99999642588889
_cell_angle_gamma    60.00000333682

_space_group_name_H-M_alt    "P 1"
_space_group_IT_number       1

loop_
  _space_group_symop_operation_xyz
  'x, y, z'

loop_
  _atom_site_type_symbol
  _atom_site_label
  _atom_site_symmetry_multiplicity
  _atom_site_fract_x
  _atom_site_fract_y
  _atom_site_fract_z
  _atom_site_occupancy
  Rb  Rb1       1.0  0.2499999664490662  0.25000002944105354  0.2500000214809032  1.0000
  Rb  Rb2       1.0  0.7500000287762797  0.7499999676199314  0.74999998949397  1.0000
  Ir  Ir1       1.0  0.999999876024006  7.666285875920074e-08  4.363368674410153e-08  1.0000
  Br  Br1       1.0  0.2363804178071112  0.2363804262460585  0.7636195572199546  1.0000
  Br  Br2       1.0  0.7636197347442598  0.7636195463480628  0.23638039797979704  1.0000
  Br  Br3       1.0  0.7636195278057577  0.2363803862025666  0.23638057062160886  1.0000
  Br  Br4       1.0  0.23638050518330173  0.7636195390889299  0.7636194360472264  1.0000
  Br  Br5       1.0  0.23638051188287773  0.7636194918613337  0.2363806231223008  1.0000
  Br  Br6       1.0  0.7636194315063585  0.2363805084618982  0.7636194081440816  1.0000
