data_image0
_chemical_formula_structural       Rb2MoF6
_chemical_formula_sum              "Rb2 Mo1 F6"
_cell_length_a       6.316890660296437
_cell_length_b       6.316890710250226
_cell_length_c       6.316890601446223
_cell_angle_alpha    60.000001502885475
_cell_angle_beta     60.00000053838761
_cell_angle_gamma    60.00000140525449

_space_group_name_H-M_alt    "P 1"
_space_group_IT_number       1

loop_
  _space_group_symop_operation_xyz
  'x, y, z'

loop_
  _atom_site_type_symbol
  _atom_site_label
  _atom_site_symmetry_multiplicity
  _atom_site_fract_x
  _atom_site_fract_y
  _atom_site_fract_z
  _atom_site_occupancy
  Rb  Rb1       1.0  0.24999997560539364  0.25000004074211507  0.25000004773366175  1.0000
  Rb  Rb2       1.0  0.7499999544225194  0.7499999845686116  0.7499999164424762  1.0000
  Mo  Mo1       1.0  0.99999999084119  3.2960302159887947e-08  3.084180218407875e-08  1.0000
  F   F1        1.0  0.22479079062430393  0.22479082978673687  0.7752091962910123  1.0000
  F   F2        1.0  0.7752092798426797  0.7752091800132612  0.2247908114857962  1.0000
  F   F3        1.0  0.775209170301248  0.22479078910286887  0.22479080858308198  1.0000
  F   F4        1.0  0.22479080675620264  0.775209166409572  0.7752091828080032  1.0000
  F   F5        1.0  0.224790810713729  0.7752091397388137  0.22479081598280073  1.0000
  F   F6        1.0  0.7752091951474992  0.22479083903972283  0.7752091588716918  1.0000
