data_image0
_chemical_formula_structural       Rb2MnCl6
_chemical_formula_sum              "Rb2 Mn1 Cl6"
_cell_length_a       7.146778781646046
_cell_length_b       7.146778918616992
_cell_length_c       7.146778808029579
_cell_angle_alpha    59.999996686009915
_cell_angle_beta     59.999999965665154
_cell_angle_gamma    60.000001582522394

_space_group_name_H-M_alt    "P 1"
_space_group_IT_number       1

loop_
  _space_group_symop_operation_xyz
  'x, y, z'

loop_
  _atom_site_type_symbol
  _atom_site_label
  _atom_site_symmetry_multiplicity
  _atom_site_fract_x
  _atom_site_fract_y
  _atom_site_fract_z
  _atom_site_occupancy
  Rb  Rb1       1.0  0.24999998522104522  0.24999995340415906  0.2500000118691653  1.0000
  Rb  Rb2       1.0  0.7499999852327828  0.7500000041634405  0.7499999978202988  1.0000
  Mn  Mn1       1.0  0.9999999488046623  0.9999999451615229  3.454563499981747e-07  1.0000
  Cl  Cl1       1.0  0.22724315443004675  0.2272429799120424  0.7727569756580546  1.0000
  Cl  Cl2       1.0  0.772756978993133  0.7727571867271955  0.22724297813946362  1.0000
  Cl  Cl3       1.0  0.7727569390938124  0.22724299794481478  0.22724309948591592  1.0000
  Cl  Cl4       1.0  0.22724321031285893  0.7727568105307265  0.7727567595476778  1.0000
  Cl  Cl5       1.0  0.22724300809541878  0.7727569988864595  0.22724306796868005  1.0000
  Cl  Cl6       1.0  0.7727567905039482  0.22724315918427013  0.7727567650855577  1.0000
