data_image0
_chemical_formula_structural       Rb2MoBr6
_chemical_formula_sum              "Rb2 Mo1 Br6"
_cell_length_a       7.634843929187734
_cell_length_b       7.634843601189359
_cell_length_c       7.63484409553611
_cell_angle_alpha    59.99999805784032
_cell_angle_beta     59.99999599725351
_cell_angle_gamma    60.00000528810013

_space_group_name_H-M_alt    "P 1"
_space_group_IT_number       1

loop_
  _space_group_symop_operation_xyz
  'x, y, z'

loop_
  _atom_site_type_symbol
  _atom_site_label
  _atom_site_symmetry_multiplicity
  _atom_site_fract_x
  _atom_site_fract_y
  _atom_site_fract_z
  _atom_site_occupancy
  Rb  Rb1       1.0  0.25000004825535854  0.25000002669486465  0.24999997664038517  1.0000
  Rb  Rb2       1.0  0.7499999685639228  0.7500000143143508  0.7499999697007225  1.0000
  Mo  Mo1       1.0  0.999999907119283  0.9999998476055666  2.7326278790804404e-07  1.0000
  Br  Br1       1.0  0.2385409180559807  0.23854097628100954  0.761459024283386  1.0000
  Br  Br2       1.0  0.7614591125872542  0.7614591593731674  0.2385408704428328  1.0000
  Br  Br3       1.0  0.7614588936822443  0.23854107546675438  0.2385411025769811  1.0000
  Br  Br4       1.0  0.2385411969567945  0.7614588484393802  0.7614588130144084  1.0000
  Br  Br5       1.0  0.23854115044438126  0.7614588311454228  0.2385411533390271  1.0000
  Br  Br6       1.0  0.7614588006231174  0.23854122109284986  0.761458817643876  1.0000
