data_image0
_chemical_formula_structural       Rb2MnBr6
_chemical_formula_sum              "Rb2 Mn1 Br6"
_cell_length_a       7.55494579356811
_cell_length_b       7.554945680139576
_cell_length_c       7.55494485786087
_cell_angle_alpha    60.00000457608374
_cell_angle_beta     60.00001005780733
_cell_angle_gamma    59.999998044169175

_space_group_name_H-M_alt    "P 1"
_space_group_IT_number       1

loop_
  _space_group_symop_operation_xyz
  'x, y, z'

loop_
  _atom_site_type_symbol
  _atom_site_label
  _atom_site_symmetry_multiplicity
  _atom_site_fract_x
  _atom_site_fract_y
  _atom_site_fract_z
  _atom_site_occupancy
  Rb  Rb1       1.0  0.24999996745152156  0.249999977586145  0.25000001690284407  1.0000
  Rb  Rb2       1.0  0.7500000470574971  0.7500000121931432  0.7499999598179011  1.0000
  Mn  Mn1       1.0  0.9999999192036341  4.166269946551337e-07  0.9999997764919564  1.0000
  Br  Br1       1.0  0.2257691785664807  0.22576930763032843  0.7742307597546138  1.0000
  Br  Br2       1.0  0.7742305718228125  0.7742306399999422  0.2257694217223104  1.0000
  Br  Br3       1.0  0.7742311274325163  0.22576899181385057  0.2257691219179457  1.0000
  Br  Br4       1.0  0.22576901825970339  0.7742308245059435  0.7742308825591331  1.0000
  Br  Br5       1.0  0.2257690012067161  0.7742308226876635  0.22576939188353454  1.0000
  Br  Br6       1.0  0.7742311612052342  0.2257689984954782  0.7742307182820087  1.0000
