data_image0
_chemical_formula_structural       Rb2MoI6
_chemical_formula_sum              "Rb2 Mo1 I6"
_cell_length_a       8.186879546028507
_cell_length_b       8.186879537935653
_cell_length_c       8.186879509288401
_cell_angle_alpha    60.000000164298
_cell_angle_beta     60.000000111832804
_cell_angle_gamma    59.999999713661936

_space_group_name_H-M_alt    "P 1"
_space_group_IT_number       1

loop_
  _space_group_symop_operation_xyz
  'x, y, z'

loop_
  _atom_site_type_symbol
  _atom_site_label
  _atom_site_symmetry_multiplicity
  _atom_site_fract_x
  _atom_site_fract_y
  _atom_site_fract_z
  _atom_site_occupancy
  Rb  Rb1       1.0  0.24999999937269216  0.24999999957372532  0.2500000097537871  1.0000
  Rb  Rb2       1.0  0.7500000004402713  0.7500000002171608  0.749999990708273  1.0000
  Mo  Mo1       1.0  4.729946131030482e-09  0.999999998504015  0.9999999751751537  1.0000
  I   I1        1.0  0.24190854608940512  0.24190854488886307  0.7580914558410591  1.0000
  I   I2        1.0  0.7580914470845226  0.7580914578939931  0.24190854522306737  1.0000
  I   I3        1.0  0.7580914550254371  0.2419085410455048  0.241908534039282  1.0000
  I   I4        1.0  0.2419085385615954  0.7580914647293214  0.758091477536973  1.0000
  I   I5        1.0  0.24190854459783204  0.7580914598858675  0.2419085301651362  1.0000
  I   I6        1.0  0.758091462352829  0.24190853541706386  0.7580914811867188  1.0000
