data_image0
_chemical_formula_structural       Rb2MoCl6
_chemical_formula_sum              "Rb2 Mo1 Cl6"
_cell_length_a       7.2953293140811954
_cell_length_b       7.29532961865773
_cell_length_c       7.295328493439133
_cell_angle_alpha    60.00000054326264
_cell_angle_beta     60.000003725540765
_cell_angle_gamma    59.999994469173565

_space_group_name_H-M_alt    "P 1"
_space_group_IT_number       1

loop_
  _space_group_symop_operation_xyz
  'x, y, z'

loop_
  _atom_site_type_symbol
  _atom_site_label
  _atom_site_symmetry_multiplicity
  _atom_site_fract_x
  _atom_site_fract_y
  _atom_site_fract_z
  _atom_site_occupancy
  Rb  Rb1       1.0  0.2500000162339675  0.2500000207196382  0.24999997336779226  1.0000
  Rb  Rb2       1.0  0.7499999863502621  0.7500000117947158  0.7499999737198177  1.0000
  Mo  Mo1       1.0  2.7826727268301393e-07  4.364895545457265e-08  0.9999998171100413  1.0000
  Cl  Cl1       1.0  0.2333523891244673  0.2333524426783936  0.7666475769658414  1.0000
  Cl  Cl2       1.0  0.7666474559512815  0.7666473833427342  0.2333526028400165  1.0000
  Cl  Cl3       1.0  0.766647742228755  0.23335227915124826  0.23335224840918486  1.0000
  Cl  Cl4       1.0  0.23335231543512458  0.7666476593499156  0.7666478182092328  1.0000
  Cl  Cl5       1.0  0.23335206652786666  0.7666479169165539  0.2333521036865129  1.0000
  Cl  Cl6       1.0  0.7666477873668781  0.23335227676326378  0.766647856353465  1.0000
