data_image0
_chemical_formula_structural       Rb2MnI6
_chemical_formula_sum              "Rb2 Mn1 I6"
_cell_length_a       8.1632797616894
_cell_length_b       8.163279755799598
_cell_length_c       8.163279799372635
_cell_angle_alpha    59.99999976663891
_cell_angle_beta     60.00000040661543
_cell_angle_gamma    60.0000002998296

_space_group_name_H-M_alt    "P 1"
_space_group_IT_number       1

loop_
  _space_group_symop_operation_xyz
  'x, y, z'

loop_
  _atom_site_type_symbol
  _atom_site_label
  _atom_site_symmetry_multiplicity
  _atom_site_fract_x
  _atom_site_fract_y
  _atom_site_fract_z
  _atom_site_occupancy
  Rb  Rb1       1.0  0.24999998724213643  0.2500000012487031  0.25000002144243944  1.0000
  Rb  Rb2       1.0  0.7499999921738213  0.7500000142482783  0.7499999813776389  1.0000
  Mn  Mn1       1.0  0.9999999632375746  0.9999999744947331  0.9999999907089178  1.0000
  I   I1        1.0  0.24432592581126567  0.24432556107284806  0.7556742600127011  1.0000
  I   I2        1.0  0.7556741155855281  0.7556744679269217  0.244325698940576  1.0000
  I   I3        1.0  0.7556741396881614  0.24432568389335801  0.24432585365545  1.0000
  I   I4        1.0  0.2443258558879876  0.7556743000971172  0.7556741874627314  1.0000
  I   I5        1.0  0.24432587151048904  0.7556742955058381  0.24432565995712294  1.0000
  I   I6        1.0  0.7556741575136925  0.244325689984947  0.7556743538869048  1.0000
