data_image0
_chemical_formula_structural       Rb2NbF6
_chemical_formula_sum              "Rb2 Nb1 F6"
_cell_length_a       6.234181703165533
_cell_length_b       6.23418215328671
_cell_length_c       6.234181813561804
_cell_angle_alpha    60.00000105262681
_cell_angle_beta     60.000000431750635
_cell_angle_gamma    59.99999913881175

_space_group_name_H-M_alt    "P 1"
_space_group_IT_number       1

loop_
  _space_group_symop_operation_xyz
  'x, y, z'

loop_
  _atom_site_type_symbol
  _atom_site_label
  _atom_site_symmetry_multiplicity
  _atom_site_fract_x
  _atom_site_fract_y
  _atom_site_fract_z
  _atom_site_occupancy
  Rb  Rb1       1.0  0.2500000181404772  0.2499999575292163  0.25000002922755293  1.0000
  Rb  Rb2       1.0  0.7500000266928252  0.7499999668867121  0.7500000576055491  1.0000
  Nb  Nb1       1.0  0.9999999899717464  7.858255663815064e-09  0.999999988252521  1.0000
  F   F1        1.0  0.22815818139202243  0.22815810455554403  0.7718418569161632  1.0000
  F   F2        1.0  0.7718417094832478  0.7718418316477729  0.22815821759115348  1.0000
  F   F3        1.0  0.7718419197335431  0.22815807387553128  0.22815810873310832  1.0000
  F   F4        1.0  0.22815809505024437  0.7718420018118121  0.7718418164332796  1.0000
  F   F5        1.0  0.22815811855864443  0.7718419201195101  0.2281581158292719  1.0000
  F   F6        1.0  0.771841846440219  0.22815814378045218  0.7718418112501932  1.0000
