data_image0
_chemical_formula_structural       Rb2NbCl6
_chemical_formula_sum              "Rb2 Nb1 Cl6"
_cell_length_a       7.286789998791091
_cell_length_b       7.286789613012629
_cell_length_c       7.2867893649654105
_cell_angle_alpha    60.000003709934596
_cell_angle_beta     59.99999997419077
_cell_angle_gamma    59.999998836329986

_space_group_name_H-M_alt    "P 1"
_space_group_IT_number       1

loop_
  _space_group_symop_operation_xyz
  'x, y, z'

loop_
  _atom_site_type_symbol
  _atom_site_label
  _atom_site_symmetry_multiplicity
  _atom_site_fract_x
  _atom_site_fract_y
  _atom_site_fract_z
  _atom_site_occupancy
  Rb  Rb1       1.0  0.24999999019833266  0.25000001541756733  0.2500000223226425  1.0000
  Rb  Rb2       1.0  0.7499999672499491  0.7500000277641791  0.74999992555425  1.0000
  Nb  Nb1       1.0  5.954380854838748e-08  3.529624087986241e-08  0.9999995298972476  1.0000
  Cl  Cl1       1.0  0.23640628506728953  0.23640618414420464  0.7635937325783797  1.0000
  Cl  Cl2       1.0  0.7635938007239135  0.7635937212140499  0.23640622141113904  1.0000
  Cl  Cl3       1.0  0.7635938250652018  0.23640617587694515  0.23640613435658922  1.0000
  Cl  Cl4       1.0  0.2364059468636601  0.7635940673169586  0.7635942166055508  1.0000
  Cl  Cl5       1.0  0.2364063072186897  0.7635936410247828  0.2364062402061111  1.0000
  Cl  Cl6       1.0  0.7635938495000478  0.23640611810611964  0.7635939943386456  1.0000
