data_image0
_chemical_formula_structural       Rb2NiBr6
_chemical_formula_sum              "Rb2 Ni1 Br6"
_cell_length_a       7.266009067896881
_cell_length_b       7.266008516045126
_cell_length_c       7.266008956788066
_cell_angle_alpha    59.99999863100767
_cell_angle_beta     60.00000519462406
_cell_angle_gamma    59.999995505510554

_space_group_name_H-M_alt    "P 1"
_space_group_IT_number       1

loop_
  _space_group_symop_operation_xyz
  'x, y, z'

loop_
  _atom_site_type_symbol
  _atom_site_label
  _atom_site_symmetry_multiplicity
  _atom_site_fract_x
  _atom_site_fract_y
  _atom_site_fract_z
  _atom_site_occupancy
  Rb  Rb1       1.0  0.24999986328249815  0.24999999490446412  0.2500000646757445  1.0000
  Rb  Rb2       1.0  0.7500001005667449  0.7500000925905868  0.7499998269256326  1.0000
  Ni  Ni1       1.0  9.912134041142108e-08  1.0787720669050858e-07  1.868939866069142e-07  1.0000
  Br  Br1       1.0  0.23860374244143326  0.23860418680284048  0.7613960357907343  1.0000
  Br  Br2       1.0  0.7613959340386808  0.7613959141768716  0.23860412900373076  1.0000
  Br  Br3       1.0  0.7613962570177379  0.238603666975585  0.23860395472159393  1.0000
  Br  Br4       1.0  0.2386039689557034  0.7613960918310713  0.7613958999720499  1.0000
  Br  Br5       1.0  0.23860374151549987  0.7613961327124678  0.23860397323180932  1.0000
  Br  Br6       1.0  0.7613962617934708  0.23860377442536415  0.7613960617606961  1.0000
