data_image0
_chemical_formula_structural       Rb2NiI6
_chemical_formula_sum              "Rb2 Ni1 I6"
_cell_length_a       7.931768073490365
_cell_length_b       7.9317684793713905
_cell_length_c       7.931769160819736
_cell_angle_alpha    59.99999279973854
_cell_angle_beta     59.99999927026271
_cell_angle_gamma    59.99999866500659

_space_group_name_H-M_alt    "P 1"
_space_group_IT_number       1

loop_
  _space_group_symop_operation_xyz
  'x, y, z'

loop_
  _atom_site_type_symbol
  _atom_site_label
  _atom_site_symmetry_multiplicity
  _atom_site_fract_x
  _atom_site_fract_y
  _atom_site_fract_z
  _atom_site_occupancy
  Rb  Rb1       1.0  0.24999996591968957  0.25000004502391565  0.24999996569467547  1.0000
  Rb  Rb2       1.0  0.749999994489813  0.750000050146205  0.7499999416115422  1.0000
  Ni  Ni1       1.0  0.9999998317891328  4.1690714140294915e-08  1.0738641754373733e-07  1.0000
  I   I1        1.0  0.24316678561516794  0.2431664268948796  0.7568337153776381  1.0000
  I   I2        1.0  0.7568334261165324  0.756833696069044  0.2431662793060853  1.0000
  I   I3        1.0  0.7568334147370896  0.24316640901181993  0.24316659607370966  1.0000
  I   I4        1.0  0.24316661157179137  0.7568333093977202  0.7568334956604371  1.0000
  I   I5        1.0  0.24316626701392882  0.7568336463495594  0.24316608713811305  1.0000
  I   I6        1.0  0.7568336921315476  0.24316641330624655  0.7568338019954458  1.0000
