data_image0
_chemical_formula_structural       Rb2NbI6
_chemical_formula_sum              "Rb2 Nb1 I6"
_cell_length_a       8.326184722070751
_cell_length_b       8.326184905357453
_cell_length_c       8.32618507646383
_cell_angle_alpha    59.999998275178335
_cell_angle_beta     59.99999762915054
_cell_angle_gamma    60.00000106648887

_space_group_name_H-M_alt    "P 1"
_space_group_IT_number       1

loop_
  _space_group_symop_operation_xyz
  'x, y, z'

loop_
  _atom_site_type_symbol
  _atom_site_label
  _atom_site_symmetry_multiplicity
  _atom_site_fract_x
  _atom_site_fract_y
  _atom_site_fract_z
  _atom_site_occupancy
  Rb  Rb1       1.0  0.2500000398728284  0.25000007706398325  0.24999999079565047  1.0000
  Rb  Rb2       1.0  0.7499999581766666  0.7499999458265503  0.7499999868113032  1.0000
  Nb  Nb1       1.0  6.729611853035131e-08  1.0296692182533854e-08  0.9999998290902685  1.0000
  I   I1        1.0  0.2400642011722176  0.24006420855900498  0.7599357787049061  1.0000
  I   I2        1.0  0.7599357220173049  0.7599357643190346  0.2400642493279796  1.0000
  I   I3        1.0  0.7599357672720294  0.2400642384238443  0.24006424645506733  1.0000
  I   I4        1.0  0.2400641795896944  0.7599358506596919  0.7599358221337497  1.0000
  I   I5        1.0  0.24006422904883062  0.7599357298956865  0.2400642815182268  1.0000
  I   I6        1.0  0.7599358271514514  0.2400641767893506  0.7599358248015914  1.0000
