data_image0
_chemical_formula_structural       Rb2NiF6
_chemical_formula_sum              "Rb2 Ni1 F6"
_cell_length_a       6.278217324340812
_cell_length_b       6.278216939856857
_cell_length_c       6.278220620377223
_cell_angle_alpha    59.99996894657658
_cell_angle_beta     59.999974568259205
_cell_angle_gamma    59.99996613613998

_space_group_name_H-M_alt    "P 1"
_space_group_IT_number       1

loop_
  _space_group_symop_operation_xyz
  'x, y, z'

loop_
  _atom_site_type_symbol
  _atom_site_label
  _atom_site_symmetry_multiplicity
  _atom_site_fract_x
  _atom_site_fract_y
  _atom_site_fract_z
  _atom_site_occupancy
  Rb  Rb1       1.0  0.2499995993713198  0.2499999621603904  0.25000040492766556  1.0000
  Rb  Rb2       1.0  0.7499997667789963  0.7500003683251042  0.7499994382751334  1.0000
  Ni  Ni1       1.0  0.9999999030218507  7.022827636655018e-08  1.009793759252794e-07  1.0000
  F   F1        1.0  0.2024673513041172  0.20246691395406735  0.7975327606725857  1.0000
  F   F2        1.0  0.7975328674372392  0.7975327513134722  0.20246738545286802  1.0000
  F   F3        1.0  0.7975331265234263  0.20246693982825917  0.20246742208937926  1.0000
  F   F4        1.0  0.2024669356163314  0.7975331897261808  0.7975328138930157  1.0000
  F   F5        1.0  0.20246672873475524  0.797533199532804  0.20246738735573347  1.0000
  F   F6        1.0  0.7975335385814631  0.20246684418710234  0.7975322951852143  1.0000
