data_image0
_chemical_formula_structural       Rb2NbBr6
_chemical_formula_sum              "Rb2 Nb1 Br6"
_cell_length_a       7.672428188458313
_cell_length_b       7.672427564695083
_cell_length_c       7.672428248524204
_cell_angle_alpha    59.999998962056154
_cell_angle_beta     59.99999391838371
_cell_angle_gamma    59.99999768542698

_space_group_name_H-M_alt    "P 1"
_space_group_IT_number       1

loop_
  _space_group_symop_operation_xyz
  'x, y, z'

loop_
  _atom_site_type_symbol
  _atom_site_label
  _atom_site_symmetry_multiplicity
  _atom_site_fract_x
  _atom_site_fract_y
  _atom_site_fract_z
  _atom_site_occupancy
  Rb  Rb1       1.0  0.2500000521438595  0.2500000107366542  0.2499998954441133  1.0000
  Rb  Rb2       1.0  0.74999993809957  0.75000006413585  0.750000057152865  1.0000
  Nb  Nb1       1.0  8.954101778606901e-08  0.9999999345519575  8.700950064874556e-08  1.0000
  Br  Br1       1.0  0.23985806838083576  0.23985791573455115  0.7601420205933431  1.0000
  Br  Br2       1.0  0.7601420069199458  0.7601420394159152  0.23985794542586752  1.0000
  Br  Br3       1.0  0.7601420072151931  0.2398579348327577  0.23985818288197985  1.0000
  Br  Br4       1.0  0.23985794954007866  0.7601420282991794  0.7601418866438838  1.0000
  Br  Br5       1.0  0.23985808415652723  0.7601419688693802  0.23985818908047188  1.0000
  Br  Br6       1.0  0.7601418026826969  0.23985810919570763  0.7601417406336952  1.0000
