data_image0
_chemical_formula_structural       Rb2OsF6
_chemical_formula_sum              "Rb2 Os1 F6"
_cell_length_a       6.11980888946206
_cell_length_b       6.119808911984448
_cell_length_c       6.119808999790698
_cell_angle_alpha    59.99999860703457
_cell_angle_beta     59.999999084916006
_cell_angle_gamma    59.99999791580912

_space_group_name_H-M_alt    "P 1"
_space_group_IT_number       1

loop_
  _space_group_symop_operation_xyz
  'x, y, z'

loop_
  _atom_site_type_symbol
  _atom_site_label
  _atom_site_symmetry_multiplicity
  _atom_site_fract_x
  _atom_site_fract_y
  _atom_site_fract_z
  _atom_site_occupancy
  Rb  Rb1       1.0  0.25000004127993336  0.25000000386913823  0.24999998817759803  1.0000
  Rb  Rb2       1.0  0.7499999601438867  0.7499999875920624  0.7499999636142279  1.0000
  Os  Os1       1.0  4.4636333443229545e-08  0.9999999679795252  0.9999999969601466  1.0000
  F   F1        1.0  0.22982908055341666  0.22982908610787434  0.7701709406994718  1.0000
  F   F2        1.0  0.7701708840102783  0.7701709253661223  0.22982911592425614  1.0000
  F   F3        1.0  0.770170986794476  0.22982902261902788  0.22982905352661268  1.0000
  F   F4        1.0  0.22982900206902737  0.7701710008626466  0.7701709522626135  1.0000
  F   F5        1.0  0.22982900203178208  0.7701710118409748  0.2298290210697014  1.0000
  F   F6        1.0  0.7701709947223851  0.2298289936291829  0.7701709685374584  1.0000
