data_image0
_chemical_formula_structural       Rb2OsBr6
_chemical_formula_sum              "Rb2 Os1 Br6"
_cell_length_a       7.5607328031225745
_cell_length_b       7.560732388057193
_cell_length_c       7.560732551457651
_cell_angle_alpha    59.9999985127473
_cell_angle_beta     60.00000037826689
_cell_angle_gamma    59.9999992938483

_space_group_name_H-M_alt    "P 1"
_space_group_IT_number       1

loop_
  _space_group_symop_operation_xyz
  'x, y, z'

loop_
  _atom_site_type_symbol
  _atom_site_label
  _atom_site_symmetry_multiplicity
  _atom_site_fract_x
  _atom_site_fract_y
  _atom_site_fract_z
  _atom_site_occupancy
  Rb  Rb1       1.0  0.2499999595721349  0.24999999886684038  0.250000021165758  1.0000
  Rb  Rb2       1.0  0.7500000219216906  0.7499999885011426  0.7500000038800587  1.0000
  Os  Os1       1.0  0.9999999669408198  0.9999999983801245  0.9999998705283569  1.0000
  Br  Br1       1.0  0.23497865434944257  0.23497867169411327  0.7650213394207421  1.0000
  Br  Br2       1.0  0.7650212502427437  0.7650213172937451  0.2349786968134935  1.0000
  Br  Br3       1.0  0.7650213419451868  0.23497869479163042  0.2349786613048664  1.0000
  Br  Br4       1.0  0.2349786767871601  0.7650213687105247  0.7650213626047756  1.0000
  Br  Br5       1.0  0.23497874061192417  0.7650213216874112  0.2349786509704677  1.0000
  Br  Br6       1.0  0.765021398218754  0.23497861060478886  0.7650214036248266  1.0000
