data_image0
_chemical_formula_structural       Rb2OsCl6
_chemical_formula_sum              "Rb2 Os1 Cl6"
_cell_length_a       7.170259575235094
_cell_length_b       7.1702599309850035
_cell_length_c       7.170258849045332
_cell_angle_alpha    60.00000259199184
_cell_angle_beta     60.00000413883613
_cell_angle_gamma    59.99999972779388

_space_group_name_H-M_alt    "P 1"
_space_group_IT_number       1

loop_
  _space_group_symop_operation_xyz
  'x, y, z'

loop_
  _atom_site_type_symbol
  _atom_site_label
  _atom_site_symmetry_multiplicity
  _atom_site_fract_x
  _atom_site_fract_y
  _atom_site_fract_z
  _atom_site_occupancy
  Rb  Rb1       1.0  0.25000004932565784  0.2499999835412331  0.24999998547078442  1.0000
  Rb  Rb2       1.0  0.7499999874725506  0.7500000069906687  0.7500000921600652  1.0000
  Os  Os1       1.0  1.0270854216997864e-07  0.9999999624220192  0.9999999576721721  1.0000
  Cl  Cl1       1.0  0.23297387011844123  0.232973852021028  0.7670260943875826  1.0000
  Cl  Cl2       1.0  0.7670260929417084  0.7670262051263872  0.23297381247331442  1.0000
  Cl  Cl3       1.0  0.7670261800909446  0.23297381582037294  0.23297374024963646  1.0000
  Cl  Cl4       1.0  0.2329737396195442  0.7670261781277161  0.7670262826449956  1.0000
  Cl  Cl5       1.0  0.23297375695559516  0.7670262728181689  0.23297370626703529  1.0000
  Cl  Cl6       1.0  0.7670262189236121  0.2329737313784566  0.767026312706615  1.0000
