data_image0
_chemical_formula_structural       Rb2OsI6
_chemical_formula_sum              "Rb2 Os1 I6"
_cell_length_a       8.14279928925861
_cell_length_b       8.142799378287004
_cell_length_c       8.142799220277604
_cell_angle_alpha    60.000000405162766
_cell_angle_beta     60.00000073464584
_cell_angle_gamma    59.9999990939398

_space_group_name_H-M_alt    "P 1"
_space_group_IT_number       1

loop_
  _space_group_symop_operation_xyz
  'x, y, z'

loop_
  _atom_site_type_symbol
  _atom_site_label
  _atom_site_symmetry_multiplicity
  _atom_site_fract_x
  _atom_site_fract_y
  _atom_site_fract_z
  _atom_site_occupancy
  Rb  Rb1       1.0  0.25000000643089737  0.24999999043078586  0.25000000196337435  1.0000
  Rb  Rb2       1.0  0.7499999939960935  0.7500000088944411  0.7499999948250646  1.0000
  Os  Os1       1.0  0.9999999927376433  9.02449988094149e-09  3.350513786509961e-08  1.0000
  I   I1        1.0  0.23629694398031795  0.23629694110750357  0.7637030590387958  1.0000
  I   I2        1.0  0.7637030701259455  0.7637030597218063  0.23629694612299118  1.0000
  I   I3        1.0  0.7637030557996725  0.23629693533052448  0.2362969430826636  1.0000
  I   I4        1.0  0.2362969529784174  0.7637030474497859  0.7637030393815004  1.0000
  I   I5        1.0  0.23629693301629315  0.7637030618035096  0.23629693725492115  1.0000
  I   I6        1.0  0.7637030549774485  0.23629694504213417  0.7637030435687504  1.0000
