data_image0
_chemical_formula_structural       Rb2PBr6
_chemical_formula_sum              "Rb2 P1 Br6"
_cell_length_a       7.513704382612399
_cell_length_b       7.5137039799668255
_cell_length_c       7.513704138032519
_cell_angle_alpha    59.99999981029692
_cell_angle_beta     60.000000508343305
_cell_angle_gamma    60.000000698147794

_space_group_name_H-M_alt    "P 1"
_space_group_IT_number       1

loop_
  _space_group_symop_operation_xyz
  'x, y, z'

loop_
  _atom_site_type_symbol
  _atom_site_label
  _atom_site_symmetry_multiplicity
  _atom_site_fract_x
  _atom_site_fract_y
  _atom_site_fract_z
  _atom_site_occupancy
  Rb  Rb1       1.0  0.2500000933310825  0.24999997470088398  0.2500000232260907  1.0000
  Rb  Rb2       1.0  0.7499999452493864  0.7500000708039758  0.7499998016943387  1.0000
  P   P1        1.0  2.155398456600756e-07  0.9999999527295751  0.9999999917266732  1.0000
  Br  Br1       1.0  0.24077658006870725  0.2407766162923922  0.7592234259242533  1.0000
  Br  Br2       1.0  0.75922330469404  0.7592233558617998  0.240776686928466  1.0000
  Br  Br3       1.0  0.7592233748199749  0.24077660568984813  0.2407766120923054  1.0000
  Br  Br4       1.0  0.2407765357565904  0.7592234365549817  0.7592235246768663  1.0000
  Br  Br5       1.0  0.2407766497927138  0.7592233477055556  0.24077664374301885  1.0000
  Br  Br6       1.0  0.7592232750358577  0.24077659184834066  0.7592234294425956  1.0000
