data_image0
_chemical_formula_structural       Rb2PCl6
_chemical_formula_sum              "Rb2 P1 Cl6"
_cell_length_a       7.385813688162799
_cell_length_b       7.385811789930148
_cell_length_c       7.385815973662622
_cell_angle_alpha    59.999992176621966
_cell_angle_beta     59.99998745607542
_cell_angle_gamma    59.99999916052742

_space_group_name_H-M_alt    "P 1"
_space_group_IT_number       1

loop_
  _space_group_symop_operation_xyz
  'x, y, z'

loop_
  _atom_site_type_symbol
  _atom_site_label
  _atom_site_symmetry_multiplicity
  _atom_site_fract_x
  _atom_site_fract_y
  _atom_site_fract_z
  _atom_site_occupancy
  Rb  Rb1       1.0  0.24999996127247848  0.24999998781106972  0.24999989456936153  1.0000
  Rb  Rb2       1.0  0.7499999944857325  0.7500000629276804  0.7499999645014711  1.0000
  P   P1        1.0  4.7376612374395815e-07  0.999998630293603  0.9999997439178133  1.0000
  Cl  Cl1       1.0  0.22282488989225538  0.22282411031445934  0.7771751320823252  1.0000
  Cl  Cl2       1.0  0.7771761541872289  0.7771757663091363  0.2228238474540932  1.0000
  Cl  Cl3       1.0  0.777174677009366  0.22282506303326083  0.22282567893475563  1.0000
  Cl  Cl4       1.0  0.22282396880311994  0.777176098726412  0.7771755617859682  1.0000
  Cl  Cl5       1.0  0.22282475410414712  0.7771752542195854  0.2228253591869322  1.0000
  Cl  Cl6       1.0  0.7771751191702126  0.22282494078610143  0.7771748738223873  1.0000
