data_image0
_chemical_formula_structural       Rb2PtF6
_chemical_formula_sum              "Rb2 Pt1 F6"
_cell_length_a       6.314686564542655
_cell_length_b       6.314687088618833
_cell_length_c       6.314686453934262
_cell_angle_alpha    59.999999510978604
_cell_angle_beta     59.99999967456499
_cell_angle_gamma    60.00000052466703

_space_group_name_H-M_alt    "P 1"
_space_group_IT_number       1

loop_
  _space_group_symop_operation_xyz
  'x, y, z'

loop_
  _atom_site_type_symbol
  _atom_site_label
  _atom_site_symmetry_multiplicity
  _atom_site_fract_x
  _atom_site_fract_y
  _atom_site_fract_z
  _atom_site_occupancy
  Rb  Rb1       1.0  0.25000003343839405  0.24999996525946158  0.2499999383732288  1.0000
  Rb  Rb2       1.0  0.7499999458448354  0.7499999093550078  0.7499999663306541  1.0000
  Pt  Pt1       1.0  0.9999999902105182  1.9395170205412444e-09  2.7679130942146463e-08  1.0000
  F   F1        1.0  0.22141314438695003  0.2214131060134552  0.7785868868677508  1.0000
  F   F2        1.0  0.7785868085733193  0.7785869024277434  0.221413125612454  1.0000
  F   F3        1.0  0.7785869062604578  0.2214132338862265  0.22141305460222716  1.0000
  F   F4        1.0  0.2214132906413696  0.7785867997687014  0.7785868755594585  1.0000
  F   F5        1.0  0.22141316612483555  0.7785868374689375  0.22141314546885565  1.0000
  F   F6        1.0  0.7785866807198221  0.2214132698876699  0.7785869941330209  1.0000
