data_image0
_chemical_formula_structural       Rb2PtCl6
_chemical_formula_sum              "Rb2 Pt1 Cl6"
_cell_length_a       7.146503930470217
_cell_length_b       7.146503945812184
_cell_length_c       7.146503867843787
_cell_angle_alpha    59.99999962646055
_cell_angle_beta     60.00000134098276
_cell_angle_gamma    60.00000236261429

_space_group_name_H-M_alt    "P 1"
_space_group_IT_number       1

loop_
  _space_group_symop_operation_xyz
  'x, y, z'

loop_
  _atom_site_type_symbol
  _atom_site_label
  _atom_site_symmetry_multiplicity
  _atom_site_fract_x
  _atom_site_fract_y
  _atom_site_fract_z
  _atom_site_occupancy
  Rb  Rb1       1.0  0.250000019248171  0.2499999551483038  0.2500000072541178  1.0000
  Rb  Rb2       1.0  0.7500000409148069  0.750000041962998  0.7500000314724408  1.0000
  Pt  Pt1       1.0  3.2348745244054374e-08  0.9999999417318957  0.9999998870239756  1.0000
  Cl  Cl1       1.0  0.2324657705970162  0.23246568877569201  0.7675343005566803  1.0000
  Cl  Cl2       1.0  0.7675341988876129  0.7675343186182149  0.23246576017703674  1.0000
  Cl  Cl3       1.0  0.7675341668867766  0.23246575908521572  0.23246582884048947  1.0000
  Cl  Cl4       1.0  0.23246581247159473  0.7675342671601383  0.7675341615592083  1.0000
  Cl  Cl5       1.0  0.23246575945105763  0.7675342977329562  0.2324657602120238  1.0000
  Cl  Cl6       1.0  0.7675341852091631  0.23246574050877142  0.7675342975099866  1.0000
