data_image0
_chemical_formula_structural       Rb2PbBr6
_chemical_formula_sum              "Rb2 Pb1 Br6"
_cell_length_a       7.972052327765207
_cell_length_b       7.9720525501782316
_cell_length_c       7.972052759637356
_cell_angle_alpha    59.99999938938245
_cell_angle_beta     60.00000130582529
_cell_angle_gamma    60.000000414465596

_space_group_name_H-M_alt    "P 1"
_space_group_IT_number       1

loop_
  _space_group_symop_operation_xyz
  'x, y, z'

loop_
  _atom_site_type_symbol
  _atom_site_label
  _atom_site_symmetry_multiplicity
  _atom_site_fract_x
  _atom_site_fract_y
  _atom_site_fract_z
  _atom_site_occupancy
  Rb  Rb1       1.0  0.24999997738026614  0.24999999810375578  0.2500000110959124  1.0000
  Rb  Rb2       1.0  0.7499999909267016  0.7500000004564593  0.7500000284185964  1.0000
  Pb  Pb1       1.0  0.9999998712399589  0.9999997388293344  0.9999998914048902  1.0000
  Br  Br1       1.0  0.2522634753940146  0.252263667439464  0.747736467641571  1.0000
  Br  Br2       1.0  0.7477367273510774  0.7477365446661799  0.2522633503899312  1.0000
  Br  Br3       1.0  0.7477364463982549  0.2522635592285176  0.2522634824274358  1.0000
  Br  Br4       1.0  0.25226337097508156  0.7477366574860193  0.7477366539324592  1.0000
  Br  Br5       1.0  0.2522634940326878  0.747736537393822  0.25226342251848904  1.0000
  Br  Br6       1.0  0.7477366419590357  0.25226330139139547  0.7477366920672142  1.0000
