data_image0
_chemical_formula_structural       Rb2PtBr6
_chemical_formula_sum              "Rb2 Pt1 Br6"
_cell_length_a       7.405780949503234
_cell_length_b       7.405780931337177
_cell_length_c       7.4057810020716826
_cell_angle_alpha    59.99999782119844
_cell_angle_beta     59.99999687084697
_cell_angle_gamma    59.99999918112341

_space_group_name_H-M_alt    "P 1"
_space_group_IT_number       1

loop_
  _space_group_symop_operation_xyz
  'x, y, z'

loop_
  _atom_site_type_symbol
  _atom_site_label
  _atom_site_symmetry_multiplicity
  _atom_site_fract_x
  _atom_site_fract_y
  _atom_site_fract_z
  _atom_site_occupancy
  Rb  Rb1       1.0  0.25000002060712057  0.2499999732405789  0.2500000020499446  1.0000
  Rb  Rb2       1.0  0.7499999702372566  0.7500000073714785  0.7500000108176093  1.0000
  Pt  Pt1       1.0  9.411877171621873e-08  0.999999970232164  0.9999999340671185  1.0000
  Br  Br1       1.0  0.23930691607630256  0.23930691111661148  0.7606930451130166  1.0000
  Br  Br2       1.0  0.7606930473781972  0.7606931703753381  0.23930693371012177  1.0000
  Br  Br3       1.0  0.7606930999235992  0.23930683434971275  0.23930701619029465  1.0000
  Br  Br4       1.0  0.23930695172911468  0.7606931462623449  0.76069298517724  1.0000
  Br  Br5       1.0  0.23930690642235017  0.7606930705357647  0.23930699756207607  1.0000
  Br  Br6       1.0  0.7606930115968601  0.23930691338382892  0.760693087872596  1.0000
