data_image0
_chemical_formula_structural       Rb2PF6
_chemical_formula_sum              "Rb2 P1 F6"
_cell_length_a       6.073225880910562
_cell_length_b       6.073226325018538
_cell_length_c       6.073226216525136
_cell_angle_alpha    59.999997469567255
_cell_angle_beta     59.999997171629225
_cell_angle_gamma    59.99999643430196

_space_group_name_H-M_alt    "P 1"
_space_group_IT_number       1

loop_
  _space_group_symop_operation_xyz
  'x, y, z'

loop_
  _atom_site_type_symbol
  _atom_site_label
  _atom_site_symmetry_multiplicity
  _atom_site_fract_x
  _atom_site_fract_y
  _atom_site_fract_z
  _atom_site_occupancy
  Rb  Rb1       1.0  0.25000008326318934  0.24999999810241805  0.2500000292046603  1.0000
  Rb  Rb2       1.0  0.7500000263196157  0.750000014473565  0.7500000180223876  1.0000
  P   P1        1.0  0.9999999791812784  2.823281822141815e-08  0.9999999765340956  1.0000
  F   F1        1.0  0.19391966399613125  0.19391985547027873  0.8060802331518085  1.0000
  F   F2        1.0  0.8060803801154579  0.8060802337376411  0.19391971134717043  1.0000
  F   F3        1.0  0.8060802414483519  0.19391968877685828  0.1939197152938903  1.0000
  F   F4        1.0  0.1939197082542076  0.8060802330507969  0.8060802464863207  1.0000
  F   F5        1.0  0.19391963021371467  0.806080308863552  0.19391972904680954  1.0000
  F   F6        1.0  0.8060802717817237  0.19391972186210982  0.8060802959925206  1.0000
