data_image0
_chemical_formula_structural       Rb2PbI6
_chemical_formula_sum              "Rb2 Pb1 I6"
_cell_length_a       8.592451358510658
_cell_length_b       8.592451728711717
_cell_length_c       8.592451836119997
_cell_angle_alpha    59.999999578891696
_cell_angle_beta     59.99999960892511
_cell_angle_gamma    59.99999923303819

_space_group_name_H-M_alt    "P 1"
_space_group_IT_number       1

loop_
  _space_group_symop_operation_xyz
  'x, y, z'

loop_
  _atom_site_type_symbol
  _atom_site_label
  _atom_site_symmetry_multiplicity
  _atom_site_fract_x
  _atom_site_fract_y
  _atom_site_fract_z
  _atom_site_occupancy
  Rb  Rb1       1.0  0.25000002266376037  0.24999998404217216  0.2500000321803531  1.0000
  Rb  Rb2       1.0  0.7499999914986574  0.7500000404996447  0.7499999858577112  1.0000
  Pb  Pb1       1.0  0.9999998554902747  0.9999998731418045  1.1589915199835581e-07  1.0000
  I   I1        1.0  0.26112862873207987  0.26112865925795137  0.7388713220564681  1.0000
  I   I2        1.0  0.7388713690175664  0.7388714508062467  0.2611285636665689  1.0000
  I   I3        1.0  0.7388714316461991  0.2611285386102604  0.2611288456250824  1.0000
  I   I4        1.0  0.261128599415698  0.7388715158643899  0.7388710512366035  1.0000
  I   I5        1.0  0.2611284769453188  0.7388712334443582  0.26112904944343723  1.0000
  I   I6        1.0  0.738871635211396  0.2611287027243304  0.7388710440870833  1.0000
