data_image0
_chemical_formula_structural       Rb2PdBr6
_chemical_formula_sum              "Rb2 Pd1 Br6"
_cell_length_a       7.385401925817098
_cell_length_b       7.3854015938236195
_cell_length_c       7.385401255188822
_cell_angle_alpha    60.00000379590935
_cell_angle_beta     60.00000462497376
_cell_angle_gamma    59.999999109913524

_space_group_name_H-M_alt    "P 1"
_space_group_IT_number       1

loop_
  _space_group_symop_operation_xyz
  'x, y, z'

loop_
  _atom_site_type_symbol
  _atom_site_label
  _atom_site_symmetry_multiplicity
  _atom_site_fract_x
  _atom_site_fract_y
  _atom_site_fract_z
  _atom_site_occupancy
  Rb  Rb1       1.0  0.24999999474899143  0.2500000169484323  0.24999998559790973  1.0000
  Rb  Rb2       1.0  0.7499999831576928  0.7500000259703145  0.7499999142609354  1.0000
  Pd  Pd1       1.0  4.614597515572915e-08  3.9799964966993506e-08  0.9999997688178938  1.0000
  Br  Br1       1.0  0.24084283804304812  0.24084281182247036  0.7591571597995485  1.0000
  Br  Br2       1.0  0.7591570595105546  0.7591571813463172  0.24084285385562768  1.0000
  Br  Br3       1.0  0.7591574478762224  0.2408424817221616  0.24084273964928193  1.0000
  Br  Br4       1.0  0.24084247044441945  0.7591575429549399  0.7591574821141235  1.0000
  Br  Br5       1.0  0.24084260827814255  0.7591574183135951  0.2408426003023784  1.0000
  Br  Br6       1.0  0.7591575244168934  0.24084246043027463  0.7591575412036786  1.0000
