data_image0
_chemical_formula_structural       Rb2PtI6
_chemical_formula_sum              "Rb2 Pt1 I6"
_cell_length_a       8.133908876287109
_cell_length_b       8.133908889131963
_cell_length_c       8.1339088687742
_cell_angle_alpha    60.00000031419087
_cell_angle_beta     60.00000004923682
_cell_angle_gamma    59.999999857094835

_space_group_name_H-M_alt    "P 1"
_space_group_IT_number       1

loop_
  _space_group_symop_operation_xyz
  'x, y, z'

loop_
  _atom_site_type_symbol
  _atom_site_label
  _atom_site_symmetry_multiplicity
  _atom_site_fract_x
  _atom_site_fract_y
  _atom_site_fract_z
  _atom_site_occupancy
  Rb  Rb1       1.0  0.24999998825845948  0.2500000028238803  0.25000000070370315  1.0000
  Rb  Rb2       1.0  0.7500000041087562  0.7500000054601862  0.7499999987032021  1.0000
  Pt  Pt1       1.0  1.911433536989949e-08  1.5057273038950977e-08  1.9796831816716332e-08  1.0000
  I   I1        1.0  0.2360461709989387  0.23604617176860648  0.7639538267542109  1.0000
  I   I2        1.0  0.7639538076027139  0.7639538139295502  0.23604618345190348  1.0000
  I   I3        1.0  0.7639538276506805  0.2360461856570709  0.23604618107987643  1.0000
  I   I4        1.0  0.2360461835159645  0.7639538045582678  0.7639538093557297  1.0000
  I   I5        1.0  0.23604616857969252  0.7639538107393737  0.23604618908751188  1.0000
  I   I6        1.0  0.7639538277166821  0.23604619001605584  0.7639537912189718  1.0000
