data_image0
_chemical_formula_structural       Rb2PdI6
_chemical_formula_sum              "Rb2 Pd1 I6"
_cell_length_a       8.20037743758967
_cell_length_b       8.200377400725674
_cell_length_c       8.200379031964177
_cell_angle_alpha    59.999995846657846
_cell_angle_beta     59.99999021014046
_cell_angle_gamma    60.0000117984179

_space_group_name_H-M_alt    "P 1"
_space_group_IT_number       1

loop_
  _space_group_symop_operation_xyz
  'x, y, z'

loop_
  _atom_site_type_symbol
  _atom_site_label
  _atom_site_symmetry_multiplicity
  _atom_site_fract_x
  _atom_site_fract_y
  _atom_site_fract_z
  _atom_site_occupancy
  Rb  Rb1       1.0  0.2500000026342739  0.24999998854580918  0.2500000860633291  1.0000
  Rb  Rb2       1.0  0.749999936870296  0.7500000477811444  0.7500000038654062  1.0000
  Pd  Pd1       1.0  3.402614504513272e-07  1.493523373526772e-07  3.5150699995410974e-07  1.0000
  I   I1        1.0  0.23547312994456537  0.23547314565837246  0.7645270224892877  1.0000
  I   I2        1.0  0.7645266688518876  0.7645267129393787  0.2354733229951179  1.0000
  I   I3        1.0  0.7645267379874512  0.23547350178560447  0.2354732530868903  1.0000
  I   I4        1.0  0.23547351780680134  0.764526168628363  0.7645263263123736  1.0000
  I   I5        1.0  0.2354735857774387  0.7645264535311902  0.23547344352033245  1.0000
  I   I6        1.0  0.7645260921853093  0.2354738098111238  0.7645262063757089  1.0000
