data_image0
_chemical_formula_structural       Rb2PdCl6
_chemical_formula_sum              "Rb2 Pd1 Cl6"
_cell_length_a       7.080777945587206
_cell_length_b       7.0807773952680195
_cell_length_c       7.080777800429381
_cell_angle_alpha    60.000001248227456
_cell_angle_beta     60.00000307860528
_cell_angle_gamma    59.99999881049059

_space_group_name_H-M_alt    "P 1"
_space_group_IT_number       1

loop_
  _space_group_symop_operation_xyz
  'x, y, z'

loop_
  _atom_site_type_symbol
  _atom_site_label
  _atom_site_symmetry_multiplicity
  _atom_site_fract_x
  _atom_site_fract_y
  _atom_site_fract_z
  _atom_site_occupancy
  Rb  Rb1       1.0  0.24999997026833165  0.2500000296024649  0.2500001107757351  1.0000
  Rb  Rb2       1.0  0.7500001564921397  0.7499998898946765  0.7500000363710656  1.0000
  Pd  Pd1       1.0  1.2805806330291408e-07  0.9999998408698335  7.20270192342722e-08  1.0000
  Cl  Cl1       1.0  0.23471101845332593  0.23471098097832904  0.7652889662727121  1.0000
  Cl  Cl2       1.0  0.7652889405654592  0.7652892118075735  0.2347109416803563  1.0000
  Cl  Cl3       1.0  0.7652890986819696  0.23471077914088584  0.23471082512951144  1.0000
  Cl  Cl4       1.0  0.2347108542293813  0.7652891922465221  0.7652891146646109  1.0000
  Cl  Cl5       1.0  0.23471074812759637  0.7652892127601153  0.23471080775082692  1.0000
  Cl  Cl6       1.0  0.7652890723450142  0.23471086240783684  0.7652891181269089  1.0000
