data_image0
_chemical_formula_structural       Rb2ReI6
_chemical_formula_sum              "Rb2 Re1 I6"
_cell_length_a       8.161398689323837
_cell_length_b       8.16139870357364
_cell_length_c       8.161398688940222
_cell_angle_alpha    60.000000109253655
_cell_angle_beta     60.00000004853629
_cell_angle_gamma    59.99999974917367

_space_group_name_H-M_alt    "P 1"
_space_group_IT_number       1

loop_
  _space_group_symop_operation_xyz
  'x, y, z'

loop_
  _atom_site_type_symbol
  _atom_site_label
  _atom_site_symmetry_multiplicity
  _atom_site_fract_x
  _atom_site_fract_y
  _atom_site_fract_z
  _atom_site_occupancy
  Rb  Rb1       1.0  0.25000000329711625  0.24999999405659698  0.2500000034091136  1.0000
  Rb  Rb2       1.0  0.7499999967287437  0.750000004679625  0.7500000055537263  1.0000
  Re  Re1       1.0  8.403166120967334e-09  4.501966790338361e-09  1.0701355975307064e-08  1.0000
  I   I1        1.0  0.23811804318438756  0.23811804031681738  0.7618819536525497  1.0000
  I   I2        1.0  0.7618819461088615  0.7618819524167822  0.23811804284814406  1.0000
  I   I3        1.0  0.7618819660554697  0.23811803668125853  0.2381180470863327  1.0000
  I   I4        1.0  0.23811803096907902  0.7618819710588972  0.7618819417212737  1.0000
  I   I5        1.0  0.23811803411885085  0.761881969354697  0.2381180467296401  1.0000
  I   I6        1.0  0.761881969236891  0.23811802788086958  0.7618819466152246  1.0000
