data_image0
_chemical_formula_structural       Rb2RhCl6
_chemical_formula_sum              "Rb2 Rh1 Cl6"
_cell_length_a       7.217853899281675
_cell_length_b       7.217853978954939
_cell_length_c       7.217854130951702
_cell_angle_alpha    60.000000524256
_cell_angle_beta     59.99999937586287
_cell_angle_gamma    59.9999973626777

_space_group_name_H-M_alt    "P 1"
_space_group_IT_number       1

loop_
  _space_group_symop_operation_xyz
  'x, y, z'

loop_
  _atom_site_type_symbol
  _atom_site_label
  _atom_site_symmetry_multiplicity
  _atom_site_fract_x
  _atom_site_fract_y
  _atom_site_fract_z
  _atom_site_occupancy
  Rb  Rb1       1.0  0.25000003247483593  0.24999996215049616  0.2500000203021609  1.0000
  Rb  Rb2       1.0  0.7499999774378633  0.7500000544373544  0.7499999676342068  1.0000
  Rh  Rh1       1.0  5.752847414932715e-08  0.9999999473983641  0.9999999725984208  1.0000
  Cl  Cl1       1.0  0.23018269680017012  0.23018272421759284  0.7698173171825294  1.0000
  Cl  Cl2       1.0  0.7698172125535391  0.7698172244971857  0.23018280068982808  1.0000
  Cl  Cl3       1.0  0.7698173713364994  0.23018261108314048  0.23018269024750795  1.0000
  Cl  Cl4       1.0  0.2301826223509739  0.7698174733777863  0.7698172677085752  1.0000
  Cl  Cl5       1.0  0.23018263216692791  0.7698174175936295  0.23018268193861566  1.0000
  Cl  Cl6       1.0  0.7698173695694165  0.23018258032912475  0.7698172681567045  1.0000
