data_image0
_chemical_formula_structural       Rb2RhF6
_chemical_formula_sum              "Rb2 Rh1 F6"
_cell_length_a       6.2573445718318155
_cell_length_b       6.257344279792849
_cell_length_c       6.257344219610813
_cell_angle_alpha    60.00000035883921
_cell_angle_beta     60.000000822506706
_cell_angle_gamma    59.99999793432929

_space_group_name_H-M_alt    "P 1"
_space_group_IT_number       1

loop_
  _space_group_symop_operation_xyz
  'x, y, z'

loop_
  _atom_site_type_symbol
  _atom_site_label
  _atom_site_symmetry_multiplicity
  _atom_site_fract_x
  _atom_site_fract_y
  _atom_site_fract_z
  _atom_site_occupancy
  Rb  Rb1       1.0  0.25000001874239736  0.25000004241714663  0.2499999371998223  1.0000
  Rb  Rb2       1.0  0.7500000814129943  0.749999935436841  0.7500000499317072  1.0000
  Rh  Rh1       1.0  3.474508204694025e-08  0.9999999843416648  1.7624701737539286e-08  1.0000
  F   F1        1.0  0.22071979565399896  0.22071986562806706  0.7792801741474965  1.0000
  F   F2        1.0  0.7792801813264506  0.7792802492363504  0.2207197453376509  1.0000
  F   F3        1.0  0.7792801318279784  0.22071978570102632  0.22071973697832045  1.0000
  F   F4        1.0  0.22071980345783365  0.7792801608362946  0.7792802795270838  1.0000
  F   F5        1.0  0.22071977828800382  0.7792802151460632  0.22071970038945454  1.0000
  F   F6        1.0  0.7792802059460097  0.22071974509230022  0.7792803886692631  1.0000
