data_image0
_chemical_formula_structural       Rb2ReCl6
_chemical_formula_sum              "Rb2 Re1 Cl6"
_cell_length_a       7.2212400809673385
_cell_length_b       7.221240304308119
_cell_length_c       7.221240384600518
_cell_angle_alpha    59.999998233432215
_cell_angle_beta     59.99999925152146
_cell_angle_gamma    60.00000160949222

_space_group_name_H-M_alt    "P 1"
_space_group_IT_number       1

loop_
  _space_group_symop_operation_xyz
  'x, y, z'

loop_
  _atom_site_type_symbol
  _atom_site_label
  _atom_site_symmetry_multiplicity
  _atom_site_fract_x
  _atom_site_fract_y
  _atom_site_fract_z
  _atom_site_occupancy
  Rb  Rb1       1.0  0.2500000080087066  0.25000000803191574  0.2499999846929541  1.0000
  Rb  Rb2       1.0  0.749999992918426  0.7499999783029035  0.7500000354580443  1.0000
  Re  Re1       1.0  0.9999998233607591  1.5094677136131098e-07  4.192710883886895e-08  1.0000
  Cl  Cl1       1.0  0.23274266959585663  0.23274264874039327  0.7672573693301361  1.0000
  Cl  Cl2       1.0  0.7672574425209294  0.7672573206341162  0.23274263417187133  1.0000
  Cl  Cl3       1.0  0.7672572468218479  0.2327428139426108  0.2327428098114675  1.0000
  Cl  Cl4       1.0  0.23274282664378004  0.7672571418636496  0.7672571380968285  1.0000
  Cl  Cl5       1.0  0.23274274202488507  0.7672571838614342  0.23274281361282312  1.0000
  Cl  Cl6       1.0  0.7672572499870272  0.2327427668567317  0.7672571387918756  1.0000
