data_image0
_chemical_formula_structural       Rb2RhBr6
_chemical_formula_sum              "Rb2 Rh1 Br6"
_cell_length_a       7.539518015539753
_cell_length_b       7.539518357035306
_cell_length_c       7.539518220284767
_cell_angle_alpha    59.99999941195373
_cell_angle_beta     59.99999890264333
_cell_angle_gamma    59.99999768365554

_space_group_name_H-M_alt    "P 1"
_space_group_IT_number       1

loop_
  _space_group_symop_operation_xyz
  'x, y, z'

loop_
  _atom_site_type_symbol
  _atom_site_label
  _atom_site_symmetry_multiplicity
  _atom_site_fract_x
  _atom_site_fract_y
  _atom_site_fract_z
  _atom_site_occupancy
  Rb  Rb1       1.0  0.25000005107041995  0.2500000016376526  0.24999999753326657  1.0000
  Rb  Rb2       1.0  0.7499999846818257  0.7499999545555145  0.7500000211362129  1.0000
  Rh  Rh1       1.0  7.394612384111323e-08  3.086423888174014e-08  1.1206156052346883e-07  1.0000
  Br  Br1       1.0  0.2354223846127879  0.23542221100612634  0.7645777885499778  1.0000
  Br  Br2       1.0  0.7645775124045173  0.7645777386893068  0.23542251495099037  1.0000
  Br  Br3       1.0  0.7645778860869572  0.23542210137642333  0.2354221862259509  1.0000
  Br  Br4       1.0  0.23542228810831625  0.7645777427308067  0.7645776176605903  1.0000
  Br  Br5       1.0  0.23542212486040642  0.7645778956584979  0.23542217900650272  1.0000
  Br  Br6       1.0  0.7645776638002753  0.23542232856626444  0.7645776116724289  1.0000
