data_image0
_chemical_formula_structural       Rb2RhI6
_chemical_formula_sum              "Rb2 Rh1 I6"
_cell_length_a       8.12403045305628
_cell_length_b       8.124030437533639
_cell_length_c       8.124030453856303
_cell_angle_alpha    60.00000032897212
_cell_angle_beta     60.00000013121014
_cell_angle_gamma    60.000000479808655

_space_group_name_H-M_alt    "P 1"
_space_group_IT_number       1

loop_
  _space_group_symop_operation_xyz
  'x, y, z'

loop_
  _atom_site_type_symbol
  _atom_site_label
  _atom_site_symmetry_multiplicity
  _atom_site_fract_x
  _atom_site_fract_y
  _atom_site_fract_z
  _atom_site_occupancy
  Rb  Rb1       1.0  0.2499999919906928  0.2500000124889485  0.24999999544673482  1.0000
  Rb  Rb2       1.0  0.7500000030071142  0.7499999862098669  0.7500000132221689  1.0000
  Rh  Rh1       1.0  0.9999999835178714  1.959825637428932e-08  0.99999997505453  1.0000
  I   I1        1.0  0.2348480484414839  0.23484806259281618  0.7651519449486767  1.0000
  I   I2        1.0  0.7651519473889247  0.7651519421362318  0.23484805167239733  1.0000
  I   I3        1.0  0.7651519506366524  0.23484805143259962  0.23484804710200619  1.0000
  I   I4        1.0  0.23484805138163353  0.7651519517888904  0.7651519545644048  1.0000
  I   I5        1.0  0.23484806382764103  0.765151942143335  0.23484805604437076  1.0000
  I   I6        1.0  0.7651519581041906  0.23484803544966573  0.7651519620195892  1.0000
