data_image0
_chemical_formula_structural       Rb2ReBr6
_chemical_formula_sum              "Rb2 Re1 Br6"
_cell_length_a       7.578403848330691
_cell_length_b       7.578403577698018
_cell_length_c       7.578404125121831
_cell_angle_alpha    59.99999961648061
_cell_angle_beta     59.999998146723314
_cell_angle_gamma    60.000001370122774

_space_group_name_H-M_alt    "P 1"
_space_group_IT_number       1

loop_
  _space_group_symop_operation_xyz
  'x, y, z'

loop_
  _atom_site_type_symbol
  _atom_site_label
  _atom_site_symmetry_multiplicity
  _atom_site_fract_x
  _atom_site_fract_y
  _atom_site_fract_z
  _atom_site_occupancy
  Rb  Rb1       1.0  0.2499999927561994  0.2500000168354269  0.25000000535475153  1.0000
  Rb  Rb2       1.0  0.7499999946302949  0.7499999648530451  0.7499999966089226  1.0000
  Re  Re1       1.0  0.999999897391101  0.9999999741424163  4.1801078024854345e-08  1.0000
  Br  Br1       1.0  0.23600227589326078  0.2360022784470738  0.7639977259008126  1.0000
  Br  Br2       1.0  0.76399780260459  0.7639977727336479  0.23600220367829336  1.0000
  Br  Br3       1.0  0.7639976713171841  0.2360023802666658  0.23600235238657918  1.0000
  Br  Br4       1.0  0.2360022701267105  0.7639976935394356  0.7639976673952916  1.0000
  Br  Br5       1.0  0.2360024179699862  0.7639975574220931  0.23600243668863863  1.0000
  Br  Br6       1.0  0.7639976892955068  0.23600234346144502  0.7639975866437113  1.0000
