data_image0
_chemical_formula_structural       Rb2RuCl6
_chemical_formula_sum              "Rb2 Ru1 Cl6"
_cell_length_a       7.2017174743725505
_cell_length_b       7.201717633866469
_cell_length_c       7.201717498615088
_cell_angle_alpha    60.00000002426866
_cell_angle_beta     59.99999765047627
_cell_angle_gamma    59.99999956735138

_space_group_name_H-M_alt    "P 1"
_space_group_IT_number       1

loop_
  _space_group_symop_operation_xyz
  'x, y, z'

loop_
  _atom_site_type_symbol
  _atom_site_label
  _atom_site_symmetry_multiplicity
  _atom_site_fract_x
  _atom_site_fract_y
  _atom_site_fract_z
  _atom_site_occupancy
  Rb  Rb1       1.0  0.24999998657627898  0.24999999749476906  0.25000004574924933  1.0000
  Rb  Rb2       1.0  0.7499999787747382  0.75000000268808  0.7500000212582015  1.0000
  Ru  Ru1       1.0  1.8056604279364258e-08  9.013332826309517e-08  4.449262689780632e-08  1.0000
  Cl  Cl1       1.0  0.23118364685695877  0.23118376993975626  0.7688163548797762  1.0000
  Cl  Cl2       1.0  0.7688163588700472  0.768816214937433  0.2311837343064511  1.0000
  Cl  Cl3       1.0  0.7688164240241132  0.23118367169352788  0.23118358574611525  1.0000
  Cl  Cl4       1.0  0.23118369643408004  0.7688162383559919  0.7688162946445096  1.0000
  Cl  Cl5       1.0  0.2311836536669719  0.768816273160633  0.2311836657510754  1.0000
  Cl  Cl6       1.0  0.7688162643443971  0.23118371511781402  0.7688162517544631  1.0000
