data_image0
_chemical_formula_structural       Rb2RuBr6
_chemical_formula_sum              "Rb2 Ru1 Br6"
_cell_length_a       7.506059158001315
_cell_length_b       7.5060594932282765
_cell_length_c       7.506059815062889
_cell_angle_alpha    59.99999880089955
_cell_angle_beta     59.9999960598381
_cell_angle_gamma    60.00000296790886

_space_group_name_H-M_alt    "P 1"
_space_group_IT_number       1

loop_
  _space_group_symop_operation_xyz
  'x, y, z'

loop_
  _atom_site_type_symbol
  _atom_site_label
  _atom_site_symmetry_multiplicity
  _atom_site_fract_x
  _atom_site_fract_y
  _atom_site_fract_z
  _atom_site_occupancy
  Rb  Rb1       1.0  0.24999997982378028  0.25000000108084025  0.2500000109819701  1.0000
  Rb  Rb2       1.0  0.749999994231028  0.7499999820307494  0.7499999548881346  1.0000
  Ru  Ru1       1.0  0.9999999601600448  0.9999998841510837  1.4578953794090752e-07  1.0000
  Br  Br1       1.0  0.23626856347256403  0.2362685542086544  0.7637314416759244  1.0000
  Br  Br2       1.0  0.7637315791936897  0.7637315414885079  0.23626845020851533  1.0000
  Br  Br3       1.0  0.7637313528284221  0.23626861904037316  0.2362686455250035  1.0000
  Br  Br4       1.0  0.23626863143499044  0.7637313934413646  0.7637313738298547  1.0000
  Br  Br5       1.0  0.23626866700473717  0.7637313541518052  0.2362686379088962  1.0000
  Br  Br6       1.0  0.7637312652024387  0.23626869912180187  0.7637313297910994  1.0000
