data_image0
_chemical_formula_structural       Rb2ReF6
_chemical_formula_sum              "Rb2 Re1 F6"
_cell_length_a       6.245723955152768
_cell_length_b       6.2457243120413795
_cell_length_c       6.245724136124579
_cell_angle_alpha    59.9999986731536
_cell_angle_beta     59.99999895669018
_cell_angle_gamma    60.00000173388158

_space_group_name_H-M_alt    "P 1"
_space_group_IT_number       1

loop_
  _space_group_symop_operation_xyz
  'x, y, z'

loop_
  _atom_site_type_symbol
  _atom_site_label
  _atom_site_symmetry_multiplicity
  _atom_site_fract_x
  _atom_site_fract_y
  _atom_site_fract_z
  _atom_site_occupancy
  Rb  Rb1       1.0  0.2499999746928908  0.2500000123627431  0.2500000215680514  1.0000
  Rb  Rb2       1.0  0.7500000779990127  0.7499997860887728  0.7500000491999016  1.0000
  Re  Re1       1.0  1.9458703835288885e-08  1.3726533829121889e-08  0.9999999657953318  1.0000
  F   F1        1.0  0.2249396582416498  0.2249396973443896  0.7750602948273398  1.0000
  F   F2        1.0  0.7750604249598981  0.7750603756377875  0.2249396218193602  1.0000
  F   F3        1.0  0.7750601976832975  0.22493974973632355  0.22493968168234008  1.0000
  F   F4        1.0  0.2249397685224916  0.7750602859881178  0.7750603521184922  1.0000
  F   F5        1.0  0.22493963352194987  0.7750603097015967  0.22493966993962755  1.0000
  F   F6        1.0  0.775060240898196  0.2249397240619105  0.7750603819147769  1.0000
