data_image0
_chemical_formula_structural       Rb2SnBr6
_chemical_formula_sum              "Rb2 Sn1 Br6"
_cell_length_a       7.731312191068361
_cell_length_b       7.731311823796427
_cell_length_c       7.7313121710083905
_cell_angle_alpha    59.99999867491826
_cell_angle_beta     59.999999388656725
_cell_angle_gamma    60.00000026725994

_space_group_name_H-M_alt    "P 1"
_space_group_IT_number       1

loop_
  _space_group_symop_operation_xyz
  'x, y, z'

loop_
  _atom_site_type_symbol
  _atom_site_label
  _atom_site_symmetry_multiplicity
  _atom_site_fract_x
  _atom_site_fract_y
  _atom_site_fract_z
  _atom_site_occupancy
  Rb  Rb1       1.0  0.2499999647711777  0.2499999952543489  0.24999999885974755  1.0000
  Rb  Rb2       1.0  0.7500000052572169  0.750000015861632  0.7500000049580389  1.0000
  Sn  Sn1       1.0  0.9999998680561921  0.9999999746538217  0.9999999441270778  1.0000
  Br  Br1       1.0  0.2426775106050411  0.24267747788441565  0.7573224955865183  1.0000
  Br  Br2       1.0  0.7573225528536128  0.757322463529586  0.24267744592290907  1.0000
  Br  Br3       1.0  0.7573224144626447  0.24267762199283158  0.24267758738722403  1.0000
  Br  Br4       1.0  0.24267753960270397  0.7573224952602571  0.7573224722319685  1.0000
  Br  Br5       1.0  0.2426776485765484  0.757322412177006  0.24267759280199044  1.0000
  Br  Br6       1.0  0.7573224968454751  0.24267753874181358  0.7573224594797642  1.0000
