data_image0
_chemical_formula_structural       Rb2SeBr6
_chemical_formula_sum              "Rb2 Se1 Br6"
_cell_length_a       7.782897965750493
_cell_length_b       7.7828976048362914
_cell_length_c       7.782896975082457
_cell_angle_alpha    60.000001735421755
_cell_angle_beta     60.00000395096815
_cell_angle_gamma    59.99999571895925

_space_group_name_H-M_alt    "P 1"
_space_group_IT_number       1

loop_
  _space_group_symop_operation_xyz
  'x, y, z'

loop_
  _atom_site_type_symbol
  _atom_site_label
  _atom_site_symmetry_multiplicity
  _atom_site_fract_x
  _atom_site_fract_y
  _atom_site_fract_z
  _atom_site_occupancy
  Rb  Rb1       1.0  0.2499999886156749  0.24999992659712447  0.2500000571438477  1.0000
  Rb  Rb2       1.0  0.7500000158226292  0.7499999859377029  0.7500000523646548  1.0000
  Se  Se1       1.0  0.9999998371443413  7.86819085781142e-09  0.9999999824134572  1.0000
  Br  Br1       1.0  0.2376339373087823  0.23763412454715505  0.7623660266510934  1.0000
  Br  Br2       1.0  0.7623659820503771  0.7623659185994757  0.23763407936410835  1.0000
  Br  Br3       1.0  0.7623661715611308  0.2376338862400337  0.23763393228116786  1.0000
  Br  Br4       1.0  0.23763400635740753  0.7623660577675069  0.7623660066528244  1.0000
  Br  Br5       1.0  0.2376339654066936  0.7623661446805747  0.23763384304649976  1.0000
  Br  Br6       1.0  0.762366107440861  0.237633940954224  0.7623660223600045  1.0000
