data_image0
_chemical_formula_structural       Rb2SnF6
_chemical_formula_sum              "Rb2 Sn1 F6"
_cell_length_a       6.418459565908728
_cell_length_b       6.41845943501632
_cell_length_c       6.418459916716747
_cell_angle_alpha    59.99999930107388
_cell_angle_beta     59.999999262234894
_cell_angle_gamma    60.00000038384318

_space_group_name_H-M_alt    "P 1"
_space_group_IT_number       1

loop_
  _space_group_symop_operation_xyz
  'x, y, z'

loop_
  _atom_site_type_symbol
  _atom_site_label
  _atom_site_symmetry_multiplicity
  _atom_site_fract_x
  _atom_site_fract_y
  _atom_site_fract_z
  _atom_site_occupancy
  Rb  Rb1       1.0  0.24999998776456067  0.2500000860254258  0.24999998277496527  1.0000
  Rb  Rb2       1.0  0.7500000672073652  0.7499999031584874  0.7500003168759042  1.0000
  Sn  Sn1       1.0  2.740325406778148e-08  9.540801472407163e-09  0.9999999908760094  1.0000
  F   F1        1.0  0.2207965842968867  0.22079667898713184  0.7792033393556502  1.0000
  F   F2        1.0  0.7792033312953653  0.7792033235538943  0.2207966197829066  1.0000
  F   F3        1.0  0.7792034417888773  0.22079668775075872  0.22079651409587242  1.0000
  F   F4        1.0  0.2207966164537188  0.7792033186065894  0.7792033484392603  1.0000
  F   F5        1.0  0.22079662854250676  0.7792033668185676  0.22079661535609868  1.0000
  F   F6        1.0  0.7792033759474294  0.2207966280898186  0.779203284453863  1.0000
