data_image0
_chemical_formula_structural       Rb2SI6
_chemical_formula_sum              "Rb2 S1 I6"
_cell_length_a       8.113414554852223
_cell_length_b       8.113414552187322
_cell_length_c       8.113414522704383
_cell_angle_alpha    60.00000001137713
_cell_angle_beta     60.00000027037723
_cell_angle_gamma    59.99999962673468

_space_group_name_H-M_alt    "P 1"
_space_group_IT_number       1

loop_
  _space_group_symop_operation_xyz
  'x, y, z'

loop_
  _atom_site_type_symbol
  _atom_site_label
  _atom_site_symmetry_multiplicity
  _atom_site_fract_x
  _atom_site_fract_y
  _atom_site_fract_z
  _atom_site_occupancy
  Rb  Rb1       1.0  0.25000000183013105  0.24999999984477758  0.25000000151851737  1.0000
  Rb  Rb2       1.0  0.7499999987049109  0.7500000070819864  0.7499999992443593  1.0000
  S   S1        1.0  2.602216097975269e-09  0.9999999879237541  0.9999999776214276  1.0000
  I   I1        1.0  0.24571772198276756  0.24571773649758344  0.7542822741806753  1.0000
  I   I2        1.0  0.7542822845040658  0.7542822568434038  0.24571773779435419  1.0000
  I   I3        1.0  0.7542822699660701  0.24571773302239344  0.24571771548819915  1.0000
  I   I4        1.0  0.2457177234529757  0.7542822739043704  0.754282294995309  1.0000
  I   I5        1.0  0.2457177267103066  0.7542822747995053  0.24571771897140537  1.0000
  I   I6        1.0  0.7542822709783368  0.24571773212725884  0.7542822782845637  1.0000
