data_image0
_chemical_formula_structural       Rb2SeI6
_chemical_formula_sum              "Rb2 Se1 I6"
_cell_length_a       8.289306573129013
_cell_length_b       8.289305892300904
_cell_length_c       8.289304644193436
_cell_angle_alpha    60.000006933751905
_cell_angle_beta     60.00000103278143
_cell_angle_gamma    59.99998908833169

_space_group_name_H-M_alt    "P 1"
_space_group_IT_number       1

loop_
  _space_group_symop_operation_xyz
  'x, y, z'

loop_
  _atom_site_type_symbol
  _atom_site_label
  _atom_site_symmetry_multiplicity
  _atom_site_fract_x
  _atom_site_fract_y
  _atom_site_fract_z
  _atom_site_occupancy
  Rb  Rb1       1.0  0.2499999792105444  0.24999998495836354  0.2499999592986599  1.0000
  Rb  Rb2       1.0  0.749999981671615  0.7500000317050891  0.7500000514975068  1.0000
  Se  Se1       1.0  7.254700709231993e-08  9.1604980599572e-08  0.9999998877646586  1.0000
  I   I1        1.0  0.24476664955304303  0.24476741253276152  0.7552329717987071  1.0000
  I   I2        1.0  0.7552332122596138  0.755232466723215  0.24476712345748544  1.0000
  I   I3        1.0  0.7552329778955225  0.2447669961087038  0.24476694576297572  1.0000
  I   I4        1.0  0.24476707554264754  0.7552330855647292  0.7552329729800797  1.0000
  I   I5        1.0  0.24476718244871606  0.7552330599295799  0.24476692323683422  1.0000
  I   I6        1.0  0.7552328645194549  0.24476687399387068  0.7552331787771054  1.0000
