data_image0
_chemical_formula_structural       Rb2SeCl6
_chemical_formula_sum              "Rb2 Se1 Cl6"
_cell_length_a       7.323577511196159
_cell_length_b       7.323577180988199
_cell_length_c       7.323577616726459
_cell_angle_alpha    59.99999947749851
_cell_angle_beta     59.99999909284463
_cell_angle_gamma    60.000001925131194

_space_group_name_H-M_alt    "P 1"
_space_group_IT_number       1

loop_
  _space_group_symop_operation_xyz
  'x, y, z'

loop_
  _atom_site_type_symbol
  _atom_site_label
  _atom_site_symmetry_multiplicity
  _atom_site_fract_x
  _atom_site_fract_y
  _atom_site_fract_z
  _atom_site_occupancy
  Rb  Rb1       1.0  0.25000002350784645  0.2500000103952752  0.2500000043063426  1.0000
  Rb  Rb2       1.0  0.7499999869590149  0.7500000311858198  0.7499998826542331  1.0000
  Se  Se1       1.0  0.9999999938052946  0.99999996655337  1.2993403078866717e-08  1.0000
  Cl  Cl1       1.0  0.23473406840727007  0.23473398204172624  0.7652660056979432  1.0000
  Cl  Cl2       1.0  0.7652659284760577  0.7652659725781342  0.2347341254293215  1.0000
  Cl  Cl3       1.0  0.7652659455632267  0.23473400918542925  0.23473411327817933  1.0000
  Cl  Cl4       1.0  0.23473408979731902  0.7652659671747402  0.7652658812349991  1.0000
  Cl  Cl5       1.0  0.23473408408929394  0.7652659107917927  0.2347340993689806  1.0000
  Cl  Cl6       1.0  0.7652658760027461  0.2347341542019428  0.7652658925580272  1.0000
