data_image0
_chemical_formula_structural       Rb2SBr6
_chemical_formula_sum              "Rb2 S1 Br6"
_cell_length_a       7.508301508391228
_cell_length_b       7.508301043129201
_cell_length_c       7.508299161677515
_cell_angle_alpha    60.00000440600951
_cell_angle_beta     60.000004025908375
_cell_angle_gamma    59.99999376798693

_space_group_name_H-M_alt    "P 1"
_space_group_IT_number       1

loop_
  _space_group_symop_operation_xyz
  'x, y, z'

loop_
  _atom_site_type_symbol
  _atom_site_label
  _atom_site_symmetry_multiplicity
  _atom_site_fract_x
  _atom_site_fract_y
  _atom_site_fract_z
  _atom_site_occupancy
  Rb  Rb1       1.0  0.24999992049934297  0.25000002366960616  0.24999993129125397  1.0000
  Rb  Rb2       1.0  0.750000017535487  0.750000031860288  0.7499997387036693  1.0000
  S   S1        1.0  3.1398190615838086e-07  0.9999998792920805  0.9999997928186519  1.0000
  Br  Br1       1.0  0.2407515228978431  0.24075142624016002  0.7592485772441047  1.0000
  Br  Br2       1.0  0.7592484316702036  0.7592483536189945  0.24075169646158984  1.0000
  Br  Br3       1.0  0.7592484861279097  0.24075158623613208  0.24075171667179437  1.0000
  Br  Br4       1.0  0.2407514010441747  0.7592486634050964  0.759248466385177  1.0000
  Br  Br5       1.0  0.24075156549475737  0.7592483981899248  0.24075182182088636  1.0000
  Br  Br6       1.0  0.7592483666683273  0.240751642659273  0.7592482167204794  1.0000
