data_image0
_chemical_formula_structural       Rb2SCl6
_chemical_formula_sum              "Rb2 S1 Cl6"
_cell_length_a       7.23073006209795
_cell_length_b       7.230729881056692
_cell_length_c       7.230729887938953
_cell_angle_alpha    60.00000175821892
_cell_angle_beta     60.000001561594395
_cell_angle_gamma    59.9999984287776

_space_group_name_H-M_alt    "P 1"
_space_group_IT_number       1

loop_
  _space_group_symop_operation_xyz
  'x, y, z'

loop_
  _atom_site_type_symbol
  _atom_site_label
  _atom_site_symmetry_multiplicity
  _atom_site_fract_x
  _atom_site_fract_y
  _atom_site_fract_z
  _atom_site_occupancy
  Rb  Rb1       1.0  0.25000006118908524  0.25000001820385065  0.24999992309145466  1.0000
  Rb  Rb2       1.0  0.7500000060031049  0.749999930963771  0.7500000291362406  1.0000
  S   S1        1.0  2.642497461223875e-07  1.5583007746736136e-07  0.9999995714482646  1.0000
  Cl  Cl1       1.0  0.23230933485340852  0.2323094183003587  0.7676906088312979  1.0000
  Cl  Cl2       1.0  0.7676905854677759  0.7676906121699213  0.23230936096772292  1.0000
  Cl  Cl3       1.0  0.7676907590681222  0.2323092167741858  0.2323091934297287  1.0000
  Cl  Cl4       1.0  0.23230907982600338  0.76769078490141  0.7676910582899074  1.0000
  Cl  Cl5       1.0  0.23230925548614575  0.7676906383883855  0.2323093007947561  1.0000
  Cl  Cl6       1.0  0.7676906487716767  0.23230922947658936  0.7676909754674369  1.0000
