data_image0
_chemical_formula_structural       Rb2SiBr6
_chemical_formula_sum              "Rb2 Si1 Br6"
_cell_length_a       7.482510676622701
_cell_length_b       7.482510356186394
_cell_length_c       7.482510800541684
_cell_angle_alpha    59.9999984754161
_cell_angle_beta     59.99999804405926
_cell_angle_gamma    60.00000210963217

_space_group_name_H-M_alt    "P 1"
_space_group_IT_number       1

loop_
  _space_group_symop_operation_xyz
  'x, y, z'

loop_
  _atom_site_type_symbol
  _atom_site_label
  _atom_site_symmetry_multiplicity
  _atom_site_fract_x
  _atom_site_fract_y
  _atom_site_fract_z
  _atom_site_occupancy
  Rb  Rb1       1.0  0.2499999750577089  0.24999999782980445  0.2500000370832673  1.0000
  Rb  Rb2       1.0  0.7500000026914767  0.7500000016734665  0.7499999721742143  1.0000
  Si  Si1       1.0  0.9999999805000723  0.9999999705374167  2.448125560592821e-08  1.0000
  Br  Br1       1.0  0.2327127160364154  0.2327127927023323  0.7672872345002553  1.0000
  Br  Br2       1.0  0.7672873453236151  0.7672873541138542  0.23271265394954668  1.0000
  Br  Br3       1.0  0.7672872186029226  0.23271275960456383  0.23271275543317915  1.0000
  Br  Br4       1.0  0.23271277305111693  0.7672872120729356  0.7672872808315082  1.0000
  Br  Br5       1.0  0.23271278822580987  0.767287147637648  0.23271279743564485  1.0000
  Br  Br6       1.0  0.767287192767626  0.2327127356521035  0.7672872749887198  1.0000
