data_image0
_chemical_formula_structural       Rb2SF6
_chemical_formula_sum              "Rb2 S1 F6"
_cell_length_a       6.047655276365919
_cell_length_b       6.047655207301715
_cell_length_c       6.047655165912299
_cell_angle_alpha    60.000000369369666
_cell_angle_beta     60.00000001990787
_cell_angle_gamma    60.00000076309189

_space_group_name_H-M_alt    "P 1"
_space_group_IT_number       1

loop_
  _space_group_symop_operation_xyz
  'x, y, z'

loop_
  _atom_site_type_symbol
  _atom_site_label
  _atom_site_symmetry_multiplicity
  _atom_site_fract_x
  _atom_site_fract_y
  _atom_site_fract_z
  _atom_site_occupancy
  Rb  Rb1       1.0  0.24999996885537432  0.2500000209312606  0.2500000533901309  1.0000
  Rb  Rb2       1.0  0.7500000823607188  0.7500000222906515  0.7499999850449861  1.0000
  S   S1        1.0  1.9325000272183773e-08  0.9999999878490607  0.9999999931059025  1.0000
  F   F1        1.0  0.22223523437265974  0.22223518483042226  0.7777648333250927  1.0000
  F   F2        1.0  0.7777648250996229  0.7777647591588183  0.2222352572123991  1.0000
  F   F3        1.0  0.7777647148708646  0.22223524933289718  0.22223525797968288  1.0000
  F   F4        1.0  0.22223522955811073  0.7777647533858822  0.7777647449673534  1.0000
  F   F5        1.0  0.22223521130069074  0.7777647492338393  0.22223520830091564  1.0000
  F   F6        1.0  0.7777647089620997  0.22223528588744448  0.7777646632058869  1.0000
