data_image0
_chemical_formula_structural       Rb2SiCl6
_chemical_formula_sum              "Rb2 Si1 Cl6"
_cell_length_a       7.085048629352345
_cell_length_b       7.085049082312553
_cell_length_c       7.085049481667848
_cell_angle_alpha    59.999997911939815
_cell_angle_beta     60.000001308971
_cell_angle_gamma    60.000007246710844

_space_group_name_H-M_alt    "P 1"
_space_group_IT_number       1

loop_
  _space_group_symop_operation_xyz
  'x, y, z'

loop_
  _atom_site_type_symbol
  _atom_site_label
  _atom_site_symmetry_multiplicity
  _atom_site_fract_x
  _atom_site_fract_y
  _atom_site_fract_z
  _atom_site_occupancy
  Rb  Rb1       1.0  0.2499998889292145  0.2500000585578233  0.2500000780509393  1.0000
  Rb  Rb2       1.0  0.7500000819216843  0.7499999716948271  0.7500000961124125  1.0000
  Si  Si1       1.0  0.9999996916908145  1.573055634849909e-07  1.4325009029629678e-07  1.0000
  Cl  Cl1       1.0  0.22429960401314092  0.22429932839079772  0.7757005788453436  1.0000
  Cl  Cl2       1.0  0.7757011253252002  0.7757005825862457  0.22429929688346203  1.0000
  Cl  Cl3       1.0  0.7757002085292668  0.22429958069920541  0.22429975921983833  1.0000
  Cl  Cl4       1.0  0.22429962823988253  0.7757002161880043  0.7757003798965778  1.0000
  Cl  Cl5       1.0  0.22429932682205037  0.7757004602406739  0.22429949598024804  1.0000
  Cl  Cl6       1.0  0.7757004331782624  0.22429963051412122  0.7757002410108589  1.0000
