data_image0
_chemical_formula_structural       Rb2SiI6
_chemical_formula_sum              "Rb2 Si1 I6"
_cell_length_a       8.101891589541944
_cell_length_b       8.101891396235896
_cell_length_c       8.101890534577306
_cell_angle_alpha    60.00000181010234
_cell_angle_beta     60.000002873671264
_cell_angle_gamma    59.99999603256337

_space_group_name_H-M_alt    "P 1"
_space_group_IT_number       1

loop_
  _space_group_symop_operation_xyz
  'x, y, z'

loop_
  _atom_site_type_symbol
  _atom_site_label
  _atom_site_symmetry_multiplicity
  _atom_site_fract_x
  _atom_site_fract_y
  _atom_site_fract_z
  _atom_site_occupancy
  Rb  Rb1       1.0  0.24999999962517183  0.2499999792730566  0.250000041978031  1.0000
  Rb  Rb2       1.0  0.7500000077133353  0.7500000224731236  0.7499999644001818  1.0000
  Si  Si1       1.0  9.045359555272677e-08  0.9999998654606783  0.9999999418146754  1.0000
  I   I1        1.0  0.23868894913875932  0.23868886399333508  0.7613111304014395  1.0000
  I   I2        1.0  0.7613110389085869  0.7613111528696227  0.23868892249803844  1.0000
  I   I3        1.0  0.7613111115932405  0.2386888503637706  0.23868878711370306  1.0000
  I   I4        1.0  0.23868886300707823  0.7613112239429418  0.7613112326788923  1.0000
  I   I5        1.0  0.2386887512326857  0.7613111329718045  0.23868882860936558  1.0000
  I   I6        1.0  0.7613111909481497  0.23868889749625655  0.7613111540212291  1.0000
