data_image0
_chemical_formula_structural       Rb2TeCl6
_chemical_formula_sum              "Rb2 Te1 Cl6"
_cell_length_a       7.440378413210773
_cell_length_b       7.440378456044724
_cell_length_c       7.4403785121133446
_cell_angle_alpha    60.00000146617507
_cell_angle_beta     59.99999986485333
_cell_angle_gamma    59.99999984281478

_space_group_name_H-M_alt    "P 1"
_space_group_IT_number       1

loop_
  _space_group_symop_operation_xyz
  'x, y, z'

loop_
  _atom_site_type_symbol
  _atom_site_label
  _atom_site_symmetry_multiplicity
  _atom_site_fract_x
  _atom_site_fract_y
  _atom_site_fract_z
  _atom_site_occupancy
  Rb  Rb1       1.0  0.25000005233565115  0.24999998607160484  0.24999999051902114  1.0000
  Rb  Rb2       1.0  0.7499999930340739  0.7499999845520752  0.7500000161825551  1.0000
  Te  Te1       1.0  4.4960515286300414e-08  0.9999999209882215  1.299357773909438e-08  1.0000
  Cl  Cl1       1.0  0.24375997228487448  0.2437600549421868  0.7562399723515297  1.0000
  Cl  Cl2       1.0  0.7562399654201368  0.7562399732942487  0.24376003787174377  1.0000
  Cl  Cl3       1.0  0.7562400014600174  0.24376003807526855  0.2437599727455811  1.0000
  Cl  Cl4       1.0  0.2437600032284429  0.7562400313131346  0.7562400223864966  1.0000
  Cl  Cl5       1.0  0.2437599963328363  0.756239949509378  0.243759973983886  1.0000
  Cl  Cl6       1.0  0.7562399697777618  0.2437600540358763  0.7562400075018317  1.0000
