data_image0
_chemical_formula_structural       Rb2TeI6
_chemical_formula_sum              "Rb2 Te1 I6"
_cell_length_a       8.399489510035789
_cell_length_b       8.399489355963246
_cell_length_c       8.39948949573268
_cell_angle_alpha    60.00000080976287
_cell_angle_beta     60.000000121747455
_cell_angle_gamma    60.000001609763004

_space_group_name_H-M_alt    "P 1"
_space_group_IT_number       1

loop_
  _space_group_symop_operation_xyz
  'x, y, z'

loop_
  _atom_site_type_symbol
  _atom_site_label
  _atom_site_symmetry_multiplicity
  _atom_site_fract_x
  _atom_site_fract_y
  _atom_site_fract_z
  _atom_site_occupancy
  Rb  Rb1       1.0  0.24999987100003368  0.2500000866987123  0.25000001338327327  1.0000
  Rb  Rb2       1.0  0.7500000770242302  0.7499999568075533  0.7499999978795976  1.0000
  Te  Te1       1.0  0.9999998532067041  1.7643230338902123e-07  0.9999999780372067  1.0000
  I   I1        1.0  0.2497312580647875  0.2497313587161005  0.7502686852838781  1.0000
  I   I2        1.0  0.7502686992371467  0.7502685827218891  0.2497313735648431  1.0000
  I   I3        1.0  0.7502689049495328  0.24973114901864302  0.24973136060537518  1.0000
  I   I4        1.0  0.2497312293038482  0.7502687647151023  0.7502685724261571  1.0000
  I   I5        1.0  0.24973119204094507  0.7502687600369071  0.24973146287991066  1.0000
  I   I6        1.0  0.7502689146345037  0.24973115807119362  0.750268549614677  1.0000
