data_image0
_chemical_formula_structural       Rb2TiCl6
_chemical_formula_sum              "Rb2 Ti1 Cl6"
_cell_length_a       7.241356753593375
_cell_length_b       7.241356653484261
_cell_length_c       7.2413562353907945
_cell_angle_alpha    59.999999272810896
_cell_angle_beta     59.999996234983456
_cell_angle_gamma    59.99999582920688

_space_group_name_H-M_alt    "P 1"
_space_group_IT_number       1

loop_
  _space_group_symop_operation_xyz
  'x, y, z'

loop_
  _atom_site_type_symbol
  _atom_site_label
  _atom_site_symmetry_multiplicity
  _atom_site_fract_x
  _atom_site_fract_y
  _atom_site_fract_z
  _atom_site_occupancy
  Rb  Rb1       1.0  0.24999997882170452  0.2500000029898226  0.24999999836770803  1.0000
  Rb  Rb2       1.0  0.7499999996048669  0.74999998698231  0.7500000035269162  1.0000
  Ti  Ti1       1.0  0.9999999000409792  0.9999999458777746  0.9999999845165244  1.0000
  Cl  Cl1       1.0  0.23189566166411274  0.2318958608343093  0.7681042184947129  1.0000
  Cl  Cl2       1.0  0.7681042437815692  0.7681041375944242  0.23189576456665775  1.0000
  Cl  Cl3       1.0  0.7681044619800355  0.23189570262767273  0.231895534549922  1.0000
  Cl  Cl4       1.0  0.2318955839499538  0.7681043431580058  0.7681044926864931  1.0000
  Cl  Cl5       1.0  0.23189581156642347  0.7681043146276894  0.23189566320644345  1.0000
  Cl  Cl6       1.0  0.7681043900697566  0.23189573284930337  0.7681043391885264  1.0000
