data_image0
_chemical_formula_structural       Rb2TeBr6
_chemical_formula_sum              "Rb2 Te1 Br6"
_cell_length_a       7.80001425169726
_cell_length_b       7.800013948076617
_cell_length_c       7.8000141285088285
_cell_angle_alpha    60.00000076833698
_cell_angle_beta     59.99999819704797
_cell_angle_gamma    59.99999784673551

_space_group_name_H-M_alt    "P 1"
_space_group_IT_number       1

loop_
  _space_group_symop_operation_xyz
  'x, y, z'

loop_
  _atom_site_type_symbol
  _atom_site_label
  _atom_site_symmetry_multiplicity
  _atom_site_fract_x
  _atom_site_fract_y
  _atom_site_fract_z
  _atom_site_occupancy
  Rb  Rb1       1.0  0.24999997859272283  0.2499999002125511  0.25000005342763737  1.0000
  Rb  Rb2       1.0  0.7499999845202896  0.7500000429375328  0.7500000737360766  1.0000
  Te  Te1       1.0  0.9999995781292369  3.8626500240148007e-07  0.9999998395980868  1.0000
  Br  Br1       1.0  0.2483733833641858  0.24837335141512923  0.7516265825972993  1.0000
  Br  Br2       1.0  0.7516266214817071  0.7516267063583035  0.248373320234719  1.0000
  Br  Br3       1.0  0.7516268221744253  0.24837318814369275  0.24837320330550727  1.0000
  Br  Br4       1.0  0.24837331311198188  0.7516267314536383  0.7516266303175103  1.0000
  Br  Br5       1.0  0.2483735273555859  0.7516265015973796  0.24837353815150598  1.0000
  Br  Br6       1.0  0.7516267956290713  0.24837320131471602  0.7516267497077918  1.0000
