data_image0
_chemical_formula_structural       Rb2TaCl6
_chemical_formula_sum              "Rb2 Ta1 Cl6"
_cell_length_a       7.171878088104125
_cell_length_b       7.171876679551735
_cell_length_c       7.171878126694454
_cell_angle_alpha    59.999999597795444
_cell_angle_beta     59.99999011641444
_cell_angle_gamma    60.00000075769056

_space_group_name_H-M_alt    "P 1"
_space_group_IT_number       1

loop_
  _space_group_symop_operation_xyz
  'x, y, z'

loop_
  _atom_site_type_symbol
  _atom_site_label
  _atom_site_symmetry_multiplicity
  _atom_site_fract_x
  _atom_site_fract_y
  _atom_site_fract_z
  _atom_site_occupancy
  Rb  Rb1       1.0  0.2499999926398941  0.24999998425822587  0.2500000269074406  1.0000
  Rb  Rb2       1.0  0.7500000422709867  0.7500000398676323  0.7500000314925546  1.0000
  Ta  Ta1       1.0  0.9999999547766244  0.999999754090562  7.437360723402045e-07  1.0000
  Cl  Cl1       1.0  0.2378300432175332  0.2378298242231314  0.7621699657553936  1.0000
  Cl  Cl2       1.0  0.7621699759640057  0.7621703775040168  0.23782988064115593  1.0000
  Cl  Cl3       1.0  0.7621699022122627  0.23783003398182548  0.23783012974274012  1.0000
  Cl  Cl4       1.0  0.23783045329758148  0.7621696417722207  0.7621695493411965  1.0000
  Cl  Cl5       1.0  0.23783024568854844  0.7621698243359645  0.23783007315963395  1.0000
  Cl  Cl6       1.0  0.762169401230675  0.23783047985341146  0.7621695456099167  1.0000
