data_image0
_chemical_formula_structural       Rb2TeF6
_chemical_formula_sum              "Rb2 Te1 F6"
_cell_length_a       6.4076105152178116
_cell_length_b       6.4076108691003455
_cell_length_c       6.407610997662249
_cell_angle_alpha    59.99999903524499
_cell_angle_beta     59.99999989802578
_cell_angle_gamma    59.99999923386951

_space_group_name_H-M_alt    "P 1"
_space_group_IT_number       1

loop_
  _space_group_symop_operation_xyz
  'x, y, z'

loop_
  _atom_site_type_symbol
  _atom_site_label
  _atom_site_symmetry_multiplicity
  _atom_site_fract_x
  _atom_site_fract_y
  _atom_site_fract_z
  _atom_site_occupancy
  Rb  Rb1       1.0  0.24999990490707  0.24999995780947434  0.2500001008600578  1.0000
  Rb  Rb2       1.0  0.7499999757474394  0.7499999823776957  0.7500003189155098  1.0000
  Te  Te1       1.0  0.9999999598264968  0.999999996177219  9.512988984190122e-09  1.0000
  F   F1        1.0  0.23064971456913186  0.2306497112899836  0.7693502551794928  1.0000
  F   F2        1.0  0.7693503676430595  0.7693503378464676  0.23064961137836312  1.0000
  F   F3        1.0  0.7693502423422288  0.2306498068252701  0.230649767880027  1.0000
  F   F4        1.0  0.23064985439588895  0.7693502365770089  0.7693500521445626  1.0000
  F   F5        1.0  0.23064968707491607  0.7693502509234291  0.23064979846832448  1.0000
  F   F6        1.0  0.7693502817345133  0.23064975998520684  0.7693500986461407  1.0000
