data_image0
_chemical_formula_structural       Rb2TaBr6
_chemical_formula_sum              "Rb2 Ta1 Br6"
_cell_length_a       7.619993639491775
_cell_length_b       7.619993514231601
_cell_length_c       7.61999394651124
_cell_angle_alpha    59.99999794018071
_cell_angle_beta     60.00000080421387
_cell_angle_gamma    59.99999364144907

_space_group_name_H-M_alt    "P 1"
_space_group_IT_number       1

loop_
  _space_group_symop_operation_xyz
  'x, y, z'

loop_
  _atom_site_type_symbol
  _atom_site_label
  _atom_site_symmetry_multiplicity
  _atom_site_fract_x
  _atom_site_fract_y
  _atom_site_fract_z
  _atom_site_occupancy
  Rb  Rb1       1.0  0.24999999913761764  0.24999998324023914  0.24999997664222173  1.0000
  Rb  Rb2       1.0  0.7499999664622762  0.749999983473559  0.7500001175020602  1.0000
  Ta  Ta1       1.0  5.993587747759546e-07  1.7037145385292963e-07  0.999999373664887  1.0000
  Br  Br1       1.0  0.2394897382114771  0.23948967336957364  0.7605102247127475  1.0000
  Br  Br2       1.0  0.760510095707429  0.7605101792274832  0.23948984666098994  1.0000
  Br  Br3       1.0  0.7605101978846409  0.2394895987443269  0.23948973653587569  1.0000
  Br  Br4       1.0  0.23948940365933014  0.7605105463773701  0.7605104701174671  1.0000
  Br  Br5       1.0  0.23948951198373516  0.7605104150482789  0.239489677946114  1.0000
  Br  Br6       1.0  0.7605104950377127  0.2394894455851562  0.7605105535145333  1.0000
