data_image0
_chemical_formula_structural       Rb2TiI6
_chemical_formula_sum              "Rb2 Ti1 I6"
_cell_length_a       8.278575954436707
_cell_length_b       8.27857575835914
_cell_length_c       8.278575730039954
_cell_angle_alpha    60.00000068362952
_cell_angle_beta     59.99999969446417
_cell_angle_gamma    60.00000078650028

_space_group_name_H-M_alt    "P 1"
_space_group_IT_number       1

loop_
  _space_group_symop_operation_xyz
  'x, y, z'

loop_
  _atom_site_type_symbol
  _atom_site_label
  _atom_site_symmetry_multiplicity
  _atom_site_fract_x
  _atom_site_fract_y
  _atom_site_fract_z
  _atom_site_occupancy
  Rb  Rb1       1.0  0.24999988994399303  0.2500000339357239  0.2499999819030372  1.0000
  Rb  Rb2       1.0  0.7500001203567241  0.7499999553451  0.7500000171461615  1.0000
  Ti  Ti1       1.0  5.156675404553915e-08  0.9999999289880832  0.9999999638209651  1.0000
  I   I1        1.0  0.23784178935357791  0.23784175173058458  0.7621581896635988  1.0000
  I   I2        1.0  0.7621582010814228  0.7621582553032179  0.23784177903560072  1.0000
  I   I3        1.0  0.7621582259061604  0.23784181625394177  0.237841799826219  1.0000
  I   I4        1.0  0.2378417270793612  0.7621582529152887  0.7621582435014885  1.0000
  I   I5        1.0  0.23784178978159984  0.7621581968425787  0.23784184307392536  1.0000
  I   I6        1.0  0.7621582152638142  0.23784179983532  0.7621581585281996  1.0000
