data_image0
_chemical_formula_structural       Rb2VF6
_chemical_formula_sum              "Rb2 V1 F6"
_cell_length_a       6.234421087520888
_cell_length_b       6.234421138697646
_cell_length_c       6.234421302388359
_cell_angle_alpha    60.000000087806406
_cell_angle_beta     59.99999732816948
_cell_angle_gamma    59.99999750324227

_space_group_name_H-M_alt    "P 1"
_space_group_IT_number       1

loop_
  _space_group_symop_operation_xyz
  'x, y, z'

loop_
  _atom_site_type_symbol
  _atom_site_label
  _atom_site_symmetry_multiplicity
  _atom_site_fract_x
  _atom_site_fract_y
  _atom_site_fract_z
  _atom_site_occupancy
  Rb  Rb1       1.0  0.24999996992802062  0.249999995689745  0.2500000335564014  1.0000
  Rb  Rb2       1.0  0.7499999212884653  0.7500000636842838  0.7499998721496955  1.0000
  V   V1        1.0  4.185126116402206e-08  0.9999999744616482  0.999999996655539  1.0000
  F   F1        1.0  0.2138741600118136  0.21387402757737356  0.7861259658441889  1.0000
  F   F2        1.0  0.7861258874038111  0.786125902140414  0.21387422493410538  1.0000
  F   F3        1.0  0.7861258562410897  0.2138740888895473  0.2138742840873088  1.0000
  F   F4        1.0  0.2138741811466703  0.7861258486861915  0.7861257104841749  1.0000
  F   F5        1.0  0.21387419457339876  0.7861258293475131  0.21387430838459776  1.0000
  F   F6        1.0  0.7861257727861529  0.2138742516358889  0.7861256270411864  1.0000
