data_image0
_chemical_formula_structural       Rb2VI6
_chemical_formula_sum              "Rb2 V1 I6"
_cell_length_a       8.219014014947135
_cell_length_b       8.219013578182231
_cell_length_c       8.219013851478378
_cell_angle_alpha    59.999997601119524
_cell_angle_beta     59.99999804100708
_cell_angle_gamma    59.99999646120822

_space_group_name_H-M_alt    "P 1"
_space_group_IT_number       1

loop_
  _space_group_symop_operation_xyz
  'x, y, z'

loop_
  _atom_site_type_symbol
  _atom_site_label
  _atom_site_symmetry_multiplicity
  _atom_site_fract_x
  _atom_site_fract_y
  _atom_site_fract_z
  _atom_site_occupancy
  Rb  Rb1       1.0  0.25000005388918844  0.2500000135196759  0.24999992778151317  1.0000
  Rb  Rb2       1.0  0.749999973864478  0.7499999675423583  0.7500001108583606  1.0000
  V   V1        1.0  0.9999999615146387  0.9999999552959161  9.877919977644701e-08  1.0000
  I   I1        1.0  0.23445052316737294  0.23445061951899113  0.7655494069383266  1.0000
  I   I2        1.0  0.7655496088030656  0.7655494956552945  0.23445042615197273  1.0000
  I   I3        1.0  0.7655493854492159  0.23445058864402754  0.2344506083320017  1.0000
  I   I4        1.0  0.23445061786822918  0.7655493477139231  0.7655494101269312  1.0000
  I   I5        1.0  0.23445060965841147  0.7655494143582833  0.23445060569408585  1.0000
  I   I6        1.0  0.7655492814777354  0.2344505845853869  0.7655493961951451  1.0000
