data_image0
_chemical_formula_structural       Rb2VCl6
_chemical_formula_sum              "Rb2 V1 Cl6"
_cell_length_a       7.200614518481162
_cell_length_b       7.20061492886389
_cell_length_c       7.200614379168602
_cell_angle_alpha    60.00000635218592
_cell_angle_beta     60.00000111891797
_cell_angle_gamma    59.99999966438896

_space_group_name_H-M_alt    "P 1"
_space_group_IT_number       1

loop_
  _space_group_symop_operation_xyz
  'x, y, z'

loop_
  _atom_site_type_symbol
  _atom_site_label
  _atom_site_symmetry_multiplicity
  _atom_site_fract_x
  _atom_site_fract_y
  _atom_site_fract_z
  _atom_site_occupancy
  Rb  Rb1       1.0  0.2499999747570845  0.250000010021265  0.25000001163749763  1.0000
  Rb  Rb2       1.0  0.7499999307329123  0.7500001117064828  0.750000182510635  1.0000
  V   V1        1.0  6.668754499293783e-08  6.803551685432099e-09  0.999999927146422  1.0000
  Cl  Cl1       1.0  0.22878302086027538  0.22878321520975411  0.7712168423070906  1.0000
  Cl  Cl2       1.0  0.7712169331773132  0.7712167993619616  0.22878310200241184  1.0000
  Cl  Cl3       1.0  0.7712170584712565  0.2287829746922919  0.228782819355912  1.0000
  Cl  Cl4       1.0  0.22878300458156198  0.7712169293216203  0.7712170965606965  1.0000
  Cl  Cl5       1.0  0.22878302721770782  0.7712169016684841  0.22878297826699037  1.0000
  Cl  Cl6       1.0  0.7712170119420724  0.22878304997033017  0.7712170202200737  1.0000
