data_image0
_chemical_formula_structural       Rb2WCl6
_chemical_formula_sum              "Rb2 W1 Cl6"
_cell_length_a       7.316801378070931
_cell_length_b       7.316801198463514
_cell_length_c       7.316801185570254
_cell_angle_alpha    59.99999957458711
_cell_angle_beta     60.000003066777595
_cell_angle_gamma    60.000000736829634

_space_group_name_H-M_alt    "P 1"
_space_group_IT_number       1

loop_
  _space_group_symop_operation_xyz
  'x, y, z'

loop_
  _atom_site_type_symbol
  _atom_site_label
  _atom_site_symmetry_multiplicity
  _atom_site_fract_x
  _atom_site_fract_y
  _atom_site_fract_z
  _atom_site_occupancy
  Rb  Rb1       1.0  0.24999995510203968  0.25000001430263363  0.2500000618880329  1.0000
  Rb  Rb2       1.0  0.7500000514484261  0.7500000194735821  0.7499999211699669  1.0000
  W   W1        1.0  1.716217350575625e-07  0.9999998828283915  0.9999995832604612  1.0000
  Cl  Cl1       1.0  0.23206026363036056  0.23206008380358462  0.767939952896865  1.0000
  Cl  Cl2       1.0  0.7679400595537337  0.7679399801024761  0.2320600071183249  1.0000
  Cl  Cl3       1.0  0.7679397058565851  0.23206024997111913  0.23206021221795156  1.0000
  Cl  Cl4       1.0  0.23205985683176383  0.7679399980617578  0.7679401084177153  1.0000
  Cl  Cl5       1.0  0.23205999348625378  0.7679399502099061  0.2320600256558356  1.0000
  Cl  Cl6       1.0  0.7679399473919969  0.23205983081039527  0.7679401166162286  1.0000
