data_image0
_chemical_formula_structural       Rb2WI6
_chemical_formula_sum              "Rb2 W1 I6"
_cell_length_a       8.257272324312192
_cell_length_b       8.257272330016495
_cell_length_c       8.257272941256101
_cell_angle_alpha    59.99999784381131
_cell_angle_beta     59.99999437272986
_cell_angle_gamma    60.00000778690988

_space_group_name_H-M_alt    "P 1"
_space_group_IT_number       1

loop_
  _space_group_symop_operation_xyz
  'x, y, z'

loop_
  _atom_site_type_symbol
  _atom_site_label
  _atom_site_symmetry_multiplicity
  _atom_site_fract_x
  _atom_site_fract_y
  _atom_site_fract_z
  _atom_site_occupancy
  Rb  Rb1       1.0  0.24999992320754702  0.2500000324675121  0.25000001183255466  1.0000
  Rb  Rb2       1.0  0.7500000533169981  0.7499999846769558  0.7500000057217334  1.0000
  W   W1        1.0  0.9999998169470817  1.8837042006477404e-07  5.471595815782829e-07  1.0000
  I   I1        1.0  0.23696846462247453  0.23696857215537698  0.7630314957081523  1.0000
  I   I2        1.0  0.7630316242979291  0.7630313930759932  0.23696855336848552  1.0000
  I   I3        1.0  0.76303143281345  0.2369686057734707  0.23696861397739866  1.0000
  I   I4        1.0  0.2369688985593936  0.7630310138649226  0.7630310591675854  1.0000
  I   I5        1.0  0.23696865923587068  0.7630313247421605  0.23696865983524149  1.0000
  I   I6        1.0  0.7630311421172529  0.23696890747088672  0.7630310168412724  1.0000
