data_image0
_chemical_formula_structural       Rb2WF6
_chemical_formula_sum              "Rb2 W1 F6"
_cell_length_a       6.246985288296141
_cell_length_b       6.246985482877953
_cell_length_c       6.246985735987265
_cell_angle_alpha    59.99999876380246
_cell_angle_beta     59.99999937983351
_cell_angle_gamma    60.00000292545451

_space_group_name_H-M_alt    "P 1"
_space_group_IT_number       1

loop_
  _space_group_symop_operation_xyz
  'x, y, z'

loop_
  _atom_site_type_symbol
  _atom_site_label
  _atom_site_symmetry_multiplicity
  _atom_site_fract_x
  _atom_site_fract_y
  _atom_site_fract_z
  _atom_site_occupancy
  Rb  Rb1       1.0  0.24999985657742121  0.2499999992668811  0.25000001187216103  1.0000
  Rb  Rb2       1.0  0.7500000266265167  0.7499999801558214  0.7500001185376862  1.0000
  W   W1        1.0  0.9999999894509126  3.921074523397585e-09  0.999999985705514  1.0000
  F   F1        1.0  0.2293256566711142  0.22932567211568383  0.7706742930408077  1.0000
  F   F2        1.0  0.7706744609448265  0.7706743249518644  0.22932557207345233  1.0000
  F   F3        1.0  0.7706742054120508  0.22932583984598853  0.22932583104981963  1.0000
  F   F4        1.0  0.22932577387086142  0.7706742062349891  0.7706742115883162  1.0000
  F   F5        1.0  0.2293257442964963  0.7706742385850867  0.2293257530528127  1.0000
  F   F6        1.0  0.7706742850441476  0.22932573495600933  0.7706742351947455  1.0000
