data_image0
_chemical_formula_structural       Rb2WBr6
_chemical_formula_sum              "Rb2 W1 Br6"
_cell_length_a       7.679147497138503
_cell_length_b       7.679147562271934
_cell_length_c       7.679146958179006
_cell_angle_alpha    60.00000241733403
_cell_angle_beta     60.000003661116196
_cell_angle_gamma    59.99999688489324

_space_group_name_H-M_alt    "P 1"
_space_group_IT_number       1

loop_
  _space_group_symop_operation_xyz
  'x, y, z'

loop_
  _atom_site_type_symbol
  _atom_site_label
  _atom_site_symmetry_multiplicity
  _atom_site_fract_x
  _atom_site_fract_y
  _atom_site_fract_z
  _atom_site_occupancy
  Rb  Rb1       1.0  0.2500000174727985  0.2500000155983667  0.2500000443644948  1.0000
  Rb  Rb2       1.0  0.749999966648538  0.7499999973533026  0.7499999936450631  1.0000
  W   W1        1.0  0.9999999850074233  7.655505415035785e-08  0.9999996905419742  1.0000
  Br  Br1       1.0  0.23536066994137578  0.2353606471811445  0.7646393385204856  1.0000
  Br  Br2       1.0  0.7646391404694619  0.7646391967114636  0.23536082529587157  1.0000
  Br  Br3       1.0  0.764639388687601  0.23536069199498685  0.2353605703704829  1.0000
  Br  Br4       1.0  0.23536061525256538  0.7646394644974022  0.7646394328395073  1.0000
  Br  Br5       1.0  0.23536065224590097  0.7646394268185743  0.23536053643304838  1.0000
  Br  Br6       1.0  0.764639563672034  0.23536049522395752  0.7646395327065635  1.0000
