data_image0
_chemical_formula_structural       Rb2ZrCl6
_chemical_formula_sum              "Rb2 Zr1 Cl6"
_cell_length_a       7.3732680971491025
_cell_length_b       7.373267865952423
_cell_length_c       7.373267807593039
_cell_angle_alpha    60.00000097520111
_cell_angle_beta     60.00000042099591
_cell_angle_gamma    60.000003026601824

_space_group_name_H-M_alt    "P 1"
_space_group_IT_number       1

loop_
  _space_group_symop_operation_xyz
  'x, y, z'

loop_
  _atom_site_type_symbol
  _atom_site_label
  _atom_site_symmetry_multiplicity
  _atom_site_fract_x
  _atom_site_fract_y
  _atom_site_fract_z
  _atom_site_occupancy
  Rb  Rb1       1.0  0.2499999890439508  0.2500000095787478  0.24999999715005544  1.0000
  Rb  Rb2       1.0  0.7500000014115501  0.7500000104645725  0.7500000010774124  1.0000
  Zr  Zr1       1.0  0.9999999984367285  0.9999998355549508  1.3318543728076118e-07  1.0000
  Cl  Cl1       1.0  0.23872727680277522  0.23872729843435161  0.761272659516943  1.0000
  Cl  Cl2       1.0  0.7612727081158571  0.7612727382195784  0.23872722331734358  1.0000
  Cl  Cl3       1.0  0.7612726252810138  0.23872738623804035  0.23872730136904607  1.0000
  Cl  Cl4       1.0  0.2387273450517602  0.7612727035698461  0.7612727045875205  1.0000
  Cl  Cl5       1.0  0.23872740641167414  0.7612726461172985  0.23872725866769018  1.0000
  Cl  Cl6       1.0  0.7612726489961077  0.2387273622985962  0.7612727006910928  1.0000
