data_image0
_chemical_formula_structural       Rb2ZrF6
_chemical_formula_sum              "Rb2 Zr1 F6"
_cell_length_a       6.376220090460109
_cell_length_b       6.376219850953873
_cell_length_c       6.376219983572226
_cell_angle_alpha    59.99999839588695
_cell_angle_beta     59.999997536380036
_cell_angle_gamma    59.999997735258845

_space_group_name_H-M_alt    "P 1"
_space_group_IT_number       1

loop_
  _space_group_symop_operation_xyz
  'x, y, z'

loop_
  _atom_site_type_symbol
  _atom_site_label
  _atom_site_symmetry_multiplicity
  _atom_site_fract_x
  _atom_site_fract_y
  _atom_site_fract_z
  _atom_site_occupancy
  Rb  Rb1       1.0  0.249999951037591  0.25000003981254787  0.2500000690046059  1.0000
  Rb  Rb2       1.0  0.7500000330024837  0.7499999926647816  0.7499998542433076  1.0000
  Zr  Zr1       1.0  2.937688811321373e-08  4.2257620175942995e-08  0.9999999735927089  1.0000
  F   F1        1.0  0.22629216584449371  0.22629216704218344  0.7737078748862114  1.0000
  F   F2        1.0  0.7737079056703634  0.7737078366231317  0.22629215861144758  1.0000
  F   F3        1.0  0.7737078263091681  0.2262921640896353  0.22629212762791517  1.0000
  F   F4        1.0  0.22629214785388724  0.773707816526069  0.7737078813807774  1.0000
  F   F5        1.0  0.2262921497803282  0.7737078063638014  0.22629214090505617  1.0000
  F   F6        1.0  0.7737078190785824  0.22629213583588464  0.7737078946686999  1.0000
