data_image0
_chemical_formula_structural       Rb2ZrI6
_chemical_formula_sum              "Rb2 Zr1 I6"
_cell_length_a       8.402899410031464
_cell_length_b       8.402899345607906
_cell_length_c       8.402899451651098
_cell_angle_alpha    59.999997882795974
_cell_angle_beta     59.99999966867608
_cell_angle_gamma    59.999999175125566

_space_group_name_H-M_alt    "P 1"
_space_group_IT_number       1

loop_
  _space_group_symop_operation_xyz
  'x, y, z'

loop_
  _atom_site_type_symbol
  _atom_site_label
  _atom_site_symmetry_multiplicity
  _atom_site_fract_x
  _atom_site_fract_y
  _atom_site_fract_z
  _atom_site_occupancy
  Rb  Rb1       1.0  0.25000000177374154  0.2500000199918939  0.2499998670795449  1.0000
  Rb  Rb2       1.0  0.7499999995340265  0.7500000031321373  0.7500001002497136  1.0000
  Zr  Zr1       1.0  4.612640366799909e-08  0.9999999110908779  1.273071819633528e-07  1.0000
  I   I1        1.0  0.24321460512639873  0.24321461524910112  0.7567854183153941  1.0000
  I   I2        1.0  0.7567853927804744  0.7567854180776149  0.24321459916591295  1.0000
  I   I3        1.0  0.7567852789475945  0.24321474197221293  0.24321471936419262  1.0000
  I   I4        1.0  0.243214719626137  0.7567852563738674  0.7567852236389667  1.0000
  I   I5        1.0  0.2432146475795356  0.7567853431935955  0.2432146618466795  1.0000
  I   I6        1.0  0.7567853078114498  0.24321468576054245  0.7567852791133662  1.0000
