data_image0
_chemical_formula_structural       Rb2ZrBr6
_chemical_formula_sum              "Rb2 Zr1 Br6"
_cell_length_a       7.7857852214254155
_cell_length_b       7.785785084498015
_cell_length_c       7.785785458403993
_cell_angle_alpha    59.9999983579774
_cell_angle_beta     59.99999870396605
_cell_angle_gamma    60.00000138189853

_space_group_name_H-M_alt    "P 1"
_space_group_IT_number       1

loop_
  _space_group_symop_operation_xyz
  'x, y, z'

loop_
  _atom_site_type_symbol
  _atom_site_label
  _atom_site_symmetry_multiplicity
  _atom_site_fract_x
  _atom_site_fract_y
  _atom_site_fract_z
  _atom_site_occupancy
  Rb  Rb1       1.0  0.24999993416117397  0.25000002347721906  0.2500000591678128  1.0000
  Rb  Rb2       1.0  0.7500000553590834  0.7499999791946188  0.749999902740995  1.0000
  Zr  Zr1       1.0  3.7992280058912336e-08  0.9999999260665329  2.053937733799576e-08  1.0000
  Br  Br1       1.0  0.2413055012472063  0.24130548218945017  0.7586945207058472  1.0000
  Br  Br2       1.0  0.758694533380009  0.758694514190179  0.24130549500592596  1.0000
  Br  Br3       1.0  0.7586944409068942  0.24130554200247425  0.24130561183579605  1.0000
  Br  Br4       1.0  0.24130551396255104  0.7586944889843079  0.7586944328732453  1.0000
  Br  Br5       1.0  0.24130557237685057  0.7586944383944395  0.24130561937703726  1.0000
  Br  Br6       1.0  0.758694411015691  0.24130560045760613  0.7586943390650519  1.0000
