data_image0
_chemical_formula_structural       Re2CrO6
_chemical_formula_sum              "Re2 Cr1 O6"
_cell_length_a       4.904258251177965
_cell_length_b       4.904257932727302
_cell_length_c       4.9042580421529145
_cell_angle_alpha    59.9999988124549
_cell_angle_beta     60.000000425120135
_cell_angle_gamma    60.000000586181415

_space_group_name_H-M_alt    "P 1"
_space_group_IT_number       1

loop_
  _space_group_symop_operation_xyz
  'x, y, z'

loop_
  _atom_site_type_symbol
  _atom_site_label
  _atom_site_symmetry_multiplicity
  _atom_site_fract_x
  _atom_site_fract_y
  _atom_site_fract_z
  _atom_site_occupancy
  Re  Re1       1.0  0.2500051855154607  0.25000122302964584  0.24999704971770254  1.0000
  Re  Re2       1.0  0.7500037515899058  0.7500005174843231  0.7499996489950065  1.0000
  Cr  Cr1       1.0  2.337836825974466e-07  4.994624251449109e-09  0.9999999601335773  1.0000
  O   O1        1.0  0.25649178871265943  0.25649407181754696  0.7435068768845992  1.0000
  O   O2        1.0  0.7435063385133754  0.7435067446917225  0.25649246096289063  1.0000
  O   O3        1.0  0.7435046783114128  0.2564924609537057  0.2564940122628374  1.0000
  O   O4        1.0  0.2564915032617494  0.7435064650923853  0.743507143729522  1.0000
  O   O5        1.0  0.25649231461147853  0.7435060162458621  0.2564938303239827  1.0000
  O   O6        1.0  0.7435042351022627  0.2564924128356872  0.7435091028776708  1.0000
