data_image0
_chemical_formula_structural       Re2CoS6
_chemical_formula_sum              "Re2 Co1 S6"
_cell_length_a       5.5584165039446
_cell_length_b       5.558416628672631
_cell_length_c       5.558416317514723
_cell_angle_alpha    59.999999734943906
_cell_angle_beta     59.99999997631233
_cell_angle_gamma    60.0000011635137

_space_group_name_H-M_alt    "P 1"
_space_group_IT_number       1

loop_
  _space_group_symop_operation_xyz
  'x, y, z'

loop_
  _atom_site_type_symbol
  _atom_site_label
  _atom_site_symmetry_multiplicity
  _atom_site_fract_x
  _atom_site_fract_y
  _atom_site_fract_z
  _atom_site_occupancy
  Re  Re1       1.0  0.2500000872578212  0.25000016310691914  0.24999983112011426  1.0000
  Re  Re2       1.0  0.7499999484512305  0.7500000706736005  0.7500003378986221  1.0000
  Co  Co1       1.0  2.5202969373655156e-10  0.9999999867795644  0.9999999812971729  1.0000
  S   S1        1.0  0.2648519832027084  0.2648519671197327  0.7351479756028106  1.0000
  S   S2        1.0  0.735148005612158  0.7351480022520733  0.26485187051380493  1.0000
  S   S3        1.0  0.7351479883029657  0.26485202518265083  0.2648519562267979  1.0000
  S   S4        1.0  0.26485195227108416  0.7351478957142195  0.7351480803745087  1.0000
  S   S5        1.0  0.2648520636442422  0.7351479578678813  0.26485194152106256  1.0000
  S   S6        1.0  0.7351479766662039  0.2648519255710881  0.7351480369548923  1.0000
