data_image0
_chemical_formula_structural       Re2CO6
_chemical_formula_sum              "Re2 C1 O6"
_cell_length_a       4.708522111284797
_cell_length_b       4.708521949356746
_cell_length_c       4.708521930353084
_cell_angle_alpha    59.999999011667946
_cell_angle_beta     59.99999801148234
_cell_angle_gamma    59.99999859427575

_space_group_name_H-M_alt    "P 1"
_space_group_IT_number       1

loop_
  _space_group_symop_operation_xyz
  'x, y, z'

loop_
  _atom_site_type_symbol
  _atom_site_label
  _atom_site_symmetry_multiplicity
  _atom_site_fract_x
  _atom_site_fract_y
  _atom_site_fract_z
  _atom_site_occupancy
  Re  Re1       1.0  0.24999933428367163  0.25000320807616283  0.2500007115749797  1.0000
  Re  Re2       1.0  0.7500009616809952  0.7499999090308046  0.7500013077675072  1.0000
  C   C1        1.0  1.4084825501942237e-08  5.904551200781455e-07  3.922154778808551e-07  1.0000
  O   O1        1.0  0.2259987587016043  0.22599824195544618  0.7740004471990641  1.0000
  O   O2        1.0  0.7740013466951116  0.7740006353196021  0.22599852454535532  1.0000
  O   O3        1.0  0.7740011839006501  0.22599869979250872  0.22599803411326033  1.0000
  O   O4        1.0  0.22599845071454366  0.7740003023364856  0.7740013442139188  1.0000
  O   O5        1.0  0.22599863938872353  0.7740003935950596  0.22599850230270122  1.0000
  O   O6        1.0  0.7740013192446831  0.22599807790466372  0.7740007818157911  1.0000
