data_image0
_chemical_formula_structural       Re2CoSe6
_chemical_formula_sum              "Re2 Co1 Se6"
_cell_length_a       5.72630639819853
_cell_length_b       5.726305604164687
_cell_length_c       5.726306925967016
_cell_angle_alpha    59.99999509029263
_cell_angle_beta     60.000001102037906
_cell_angle_gamma    59.99999796560625

_space_group_name_H-M_alt    "P 1"
_space_group_IT_number       1

loop_
  _space_group_symop_operation_xyz
  'x, y, z'

loop_
  _atom_site_type_symbol
  _atom_site_label
  _atom_site_symmetry_multiplicity
  _atom_site_fract_x
  _atom_site_fract_y
  _atom_site_fract_z
  _atom_site_occupancy
  Re  Re1       1.0  0.250000387125928  0.2499991633170972  0.2500001359636485  1.0000
  Re  Re2       1.0  0.7499991556385817  0.750000452195774  0.7499992573027041  1.0000
  Co  Co1       1.0  1.4526718897738364e-07  6.630295016472878e-08  0.999999854049433  1.0000
  Se  Se1       1.0  0.27240244098148547  0.27240156625434037  0.7275979448833778  1.0000
  Se  Se2       1.0  0.727597883116345  0.7275982460286103  0.2724024052894238  1.0000
  Se  Se3       1.0  0.7275977469409541  0.2724018153935069  0.2724021316225741  1.0000
  Se  Se4       1.0  0.27240265591845103  0.7275982022146956  0.7275977848703402  1.0000
  Se  Se5       1.0  0.2724016718419275  0.727598447666216  0.2724020943663366  1.0000
  Se  Se6       1.0  0.7275978882632743  0.27240195064921013  0.7275984425807989  1.0000
