data_image0
_chemical_formula_structural       Re2CrS6
_chemical_formula_sum              "Re2 Cr1 S6"
_cell_length_a       5.6051678648978
_cell_length_b       5.6051679216234715
_cell_length_c       5.60516780977521
_cell_angle_alpha    60.000000337799776
_cell_angle_beta     60.00000011385076
_cell_angle_gamma    60.000000687211035

_space_group_name_H-M_alt    "P 1"
_space_group_IT_number       1

loop_
  _space_group_symop_operation_xyz
  'x, y, z'

loop_
  _atom_site_type_symbol
  _atom_site_label
  _atom_site_symmetry_multiplicity
  _atom_site_fract_x
  _atom_site_fract_y
  _atom_site_fract_z
  _atom_site_occupancy
  Re  Re1       1.0  0.25000012073127154  0.24999989070291054  0.2500000262997581  1.0000
  Re  Re2       1.0  0.7499999614951027  0.7500000151581201  0.7500000506337626  1.0000
  Cr  Cr1       1.0  0.999999971637517  1.0925139721378185e-08  1.5824000235083328e-09  1.0000
  S   S1        1.0  0.26816521637960034  0.26816515426279774  0.7318347690354726  1.0000
  S   S2        1.0  0.7318348059370698  0.7318348324442674  0.2681652046583516  1.0000
  S   S3        1.0  0.7318347432863191  0.2681652506255797  0.268165190226182  1.0000
  S   S4        1.0  0.26816521939201465  0.7318347666718766  0.7318347872872076  1.0000
  S   S5        1.0  0.2681651397605097  0.7318349034671466  0.2681651972931702  1.0000
  S   S6        1.0  0.7318348049377453  0.2681651924913162  0.7318347980495891  1.0000
