data_image0
_chemical_formula_structural       Re2CoO6
_chemical_formula_sum              "Re2 Co1 O6"
_cell_length_a       4.895801426634547
_cell_length_b       4.8958014195693496
_cell_length_c       4.895801364610677
_cell_angle_alpha    60.000002260501844
_cell_angle_beta     60.00000228029
_cell_angle_gamma    60.00000230979584

_space_group_name_H-M_alt    "P 1"
_space_group_IT_number       1

loop_
  _space_group_symop_operation_xyz
  'x, y, z'

loop_
  _atom_site_type_symbol
  _atom_site_label
  _atom_site_symmetry_multiplicity
  _atom_site_fract_x
  _atom_site_fract_y
  _atom_site_fract_z
  _atom_site_occupancy
  Re  Re1       1.0  0.250000265044125  0.25000040086316583  0.24999930599935988  1.0000
  Re  Re2       1.0  0.7499998905892403  0.7499999467748432  0.7499985692379727  1.0000
  Co  Co1       1.0  2.2060846626279418e-08  0.9999999974983765  0.9999999309859593  1.0000
  O   O1        1.0  0.2563885923508026  0.2563886121060234  0.7436115286933105  1.0000
  O   O2        1.0  0.7436112759971522  0.7436114228291731  0.2563893447685098  1.0000
  O   O3        1.0  0.7436114841170955  0.2563883379713497  0.25638898493877166  1.0000
  O   O4        1.0  0.25638883820138497  0.7436111841311764  0.7436117075697677  1.0000
  O   O5        1.0  0.25638844166606506  0.7436112071429505  0.2563888919355451  1.0000
  O   O6        1.0  0.7436112023087028  0.25638888532956294  0.7436117054524988  1.0000
