data_image0
_chemical_formula_structural       Re2CrTe6
_chemical_formula_sum              "Re2 Cr1 Te6"
_cell_length_a       6.810537000392382
_cell_length_b       6.810537119994662
_cell_length_c       6.8105369742562125
_cell_angle_alpha    59.99999926984372
_cell_angle_beta     59.99999926173851
_cell_angle_gamma    59.999999341850796

_space_group_name_H-M_alt    "P 1"
_space_group_IT_number       1

loop_
  _space_group_symop_operation_xyz
  'x, y, z'

loop_
  _atom_site_type_symbol
  _atom_site_label
  _atom_site_symmetry_multiplicity
  _atom_site_fract_x
  _atom_site_fract_y
  _atom_site_fract_z
  _atom_site_occupancy
  Re  Re1       1.0  0.24999981473171712  0.24999991330351784  0.250000152608773  1.0000
  Re  Re2       1.0  0.750000070179013  0.749999810044586  0.7500006691946213  1.0000
  Cr  Cr1       1.0  3.3732781732422974e-09  3.057125019734355e-08  0.9999999287001543  1.0000
  Te  Te1       1.0  0.26002743035845144  0.26002757689079514  0.739972552893354  1.0000
  Te  Te2       1.0  0.7399725558978405  0.7399724629596667  0.26002725388223763  1.0000
  Te  Te3       1.0  0.7399725261257664  0.26002760089081584  0.2600273304206538  1.0000
  Te  Te4       1.0  0.26002735848499026  0.7399726421685409  0.7399723844604923  1.0000
  Te  Te5       1.0  0.2600275884463013  0.7399725243400853  0.2600273369263427  1.0000
  Te  Te6       1.0  0.7399726456912493  0.26002743818309676  0.7399724051286407  1.0000
