data_image0
_chemical_formula_structural       Re2CrSe6
_chemical_formula_sum              "Re2 Cr1 Se6"
_cell_length_a       5.739562768997127
_cell_length_b       5.739562381243067
_cell_length_c       5.739561106007469
_cell_angle_alpha    60.000005327282516
_cell_angle_beta     59.99996814869141
_cell_angle_gamma    60.00003560272012

_space_group_name_H-M_alt    "P 1"
_space_group_IT_number       1

loop_
  _space_group_symop_operation_xyz
  'x, y, z'

loop_
  _atom_site_type_symbol
  _atom_site_label
  _atom_site_symmetry_multiplicity
  _atom_site_fract_x
  _atom_site_fract_y
  _atom_site_fract_z
  _atom_site_occupancy
  Re  Re1       1.0  0.2500026801264836  0.25000271614710645  0.24999640383651386  1.0000
  Re  Re2       1.0  0.7500008907403332  0.7499990517755539  0.7499960105213019  1.0000
  Cr  Cr1       1.0  0.9999988332856501  0.9999997460699808  3.1199144624493007e-06  1.0000
  Se  Se1       1.0  0.27661618434830265  0.2766180883741462  0.7233821671654174  1.0000
  Se  Se2       1.0  0.7233814909741044  0.7233833744039503  0.27661802036989974  1.0000
  Se  Se3       1.0  0.7233832415067909  0.2766179442124193  0.27661963005125656  1.0000
  Se  Se4       1.0  0.2766191794069115  0.7233787152402732  0.7233838026235007  1.0000
  Se  Se5       1.0  0.27661655258075557  0.7233803412823481  0.2766192903891095  1.0000
  Se  Se6       1.0  0.7233809628066319  0.2766201889970765  0.7233813266294534  1.0000
