data_image0
_chemical_formula_structural       Re2CS6
_chemical_formula_sum              "Re2 C1 S6"
_cell_length_a       4.845228086564595
_cell_length_b       3.136929138710794
_cell_length_c       2.6888830504477603
_cell_angle_alpha    72.84738285165824
_cell_angle_beta     79.87960246185833
_cell_angle_gamma    65.76529994645598

_space_group_name_H-M_alt    "P 1"
_space_group_IT_number       1

loop_
  _space_group_symop_operation_xyz
  'x, y, z'

loop_
  _atom_site_type_symbol
  _atom_site_label
  _atom_site_symmetry_multiplicity
  _atom_site_fract_x
  _atom_site_fract_y
  _atom_site_fract_z
  _atom_site_occupancy
  Re  Re1       1.0  0.9746412118768962  0.4906717582310315  0.5306172748255357  1.0000
  Re  Re2       1.0  0.4643083745158698  0.25244976409391734  0.6237321612226743  1.0000
  C   C1        1.0  0.4089352238094483  0.8651410212449983  0.7263874000770655  1.0000
  S   S1        1.0  0.34800365393100696  0.5289204965067391  0.07737996935569114  1.0000
  S   S2        1.0  0.3932433563587361  0.8663493658855563  0.10144171841281947  1.0000
  S   S3        1.0  0.9682920791908071  0.488635592100616  0.5329053347825956  1.0000
  S   S4        1.0  0.48411978694738905  0.4627504107917269  0.4563036353686397  1.0000
  S   S5        1.0  0.5146573642492236  0.7448251481384187  0.2791178970049169  1.0000
  S   S6        1.0  0.1198139924760615  0.9163738416898234  0.8600879054195365  1.0000
