data_image0
_chemical_formula_structural       Re2FeSe6
_chemical_formula_sum              "Re2 Fe1 Se6"
_cell_length_a       4.669015520009246
_cell_length_b       4.4944682706934245
_cell_length_c       3.6663188393447323
_cell_angle_alpha    63.98666392747173
_cell_angle_beta     58.800092526015476
_cell_angle_gamma    61.9761501690688

_space_group_name_H-M_alt    "P 1"
_space_group_IT_number       1

loop_
  _space_group_symop_operation_xyz
  'x, y, z'

loop_
  _atom_site_type_symbol
  _atom_site_label
  _atom_site_symmetry_multiplicity
  _atom_site_fract_x
  _atom_site_fract_y
  _atom_site_fract_z
  _atom_site_occupancy
  Re  Re1       1.0  0.190555958782468  0.5434551438202763  0.21082231574056606  1.0000
  Re  Re2       1.0  0.9677643823585101  0.8742805598275158  0.5267655918261995  1.0000
  Fe  Fe1       1.0  0.001578466375643755  0.9285272543801811  0.022575089169785338  1.0000
  Se  Se1       1.0  0.23812527070034017  0.17816711982624456  0.5289123571205196  1.0000
  Se  Se2       1.0  0.7657809797910403  0.7126206611148644  0.4634578656321464  1.0000
  Se  Se3       1.0  0.7697696859855634  0.32025121935153855  0.14460202129862096  1.0000
  Se  Se4       1.0  0.2391629500216827  0.5244108399383957  0.9373601144366309  1.0000
  Se  Se5       1.0  0.2964398115466293  0.8488687910248449  0.16358688531840943  1.0000
  Se  Se6       1.0  0.724445856322232  0.05725154406514668  0.7925525348997566  1.0000
