data_image0
_chemical_formula_structural       Re2FeO6
_chemical_formula_sum              "Re2 Fe1 O6"
_cell_length_a       4.855743480033704
_cell_length_b       4.855743433570653
_cell_length_c       4.855743739156844
_cell_angle_alpha    60.00000047693943
_cell_angle_beta     60.00000315919139
_cell_angle_gamma    60.00000158739311

_space_group_name_H-M_alt    "P 1"
_space_group_IT_number       1

loop_
  _space_group_symop_operation_xyz
  'x, y, z'

loop_
  _atom_site_type_symbol
  _atom_site_label
  _atom_site_symmetry_multiplicity
  _atom_site_fract_x
  _atom_site_fract_y
  _atom_site_fract_z
  _atom_site_occupancy
  Re  Re1       1.0  0.2500005568460608  0.24999828483434483  0.2499986163451099  1.0000
  Re  Re2       1.0  0.7500016627140469  0.7499987160835058  0.7499960783665759  1.0000
  Fe  Fe1       1.0  2.8490857364991097e-08  0.9999998360530823  0.9999999256282721  1.0000
  O   O1        1.0  0.254970526655318  0.25497106742590636  0.7450299692398459  1.0000
  O   O2        1.0  0.7450282456049301  0.7450303398806509  0.2549720799486981  1.0000
  O   O3        1.0  0.7450295195878025  0.25497074243216866  0.2549715304920005  1.0000
  O   O4        1.0  0.25497077954911324  0.7450291162066037  0.7450299756090225  1.0000
  O   O5        1.0  0.2549695145616529  0.7450299560680383  0.2549723251898865  1.0000
  O   O6        1.0  0.7450291599032012  0.254971965779609  0.7450294661998135  1.0000
