data_image0
_chemical_formula_structural       Re2FeS6
_chemical_formula_sum              "Re2 Fe1 S6"
_cell_length_a       2.777134771546624
_cell_length_b       4.461877909820959
_cell_length_c       3.7996242174973074
_cell_angle_alpha    82.15358780788695
_cell_angle_beta     60.82754488579055
_cell_angle_gamma    73.9378250625899

_space_group_name_H-M_alt    "P 1"
_space_group_IT_number       1

loop_
  _space_group_symop_operation_xyz
  'x, y, z'

loop_
  _atom_site_type_symbol
  _atom_site_label
  _atom_site_symmetry_multiplicity
  _atom_site_fract_x
  _atom_site_fract_y
  _atom_site_fract_z
  _atom_site_occupancy
  Re  Re1       1.0  0.1322321628330343  0.20456875151228257  0.055532310688910895  1.0000
  Re  Re2       1.0  0.22255558348725768  0.6424118470177543  0.6075747329571368  1.0000
  Fe  Fe1       1.0  0.8288426425589581  0.951472232902335  0.1053490833445015  1.0000
  S   S1        1.0  0.1422544015831806  0.21339024223298106  0.4631750182074306  1.0000
  S   S2        1.0  0.8538942782909302  0.6350557197744023  0.25999373244789414  1.0000
  S   S3        1.0  0.2853263179397161  0.21245337234275904  0.44653742760608084  1.0000
  S   S4        1.0  0.5524061227594087  0.6635555385912988  0.996512581062805  1.0000
  S   S5        1.0  0.5426720193878943  0.6456544664889559  0.0810008687609591  1.0000
  S   S6        1.0  0.6364292969896854  0.12262611160517722  0.15322581226689858  1.0000
