data_image0
_chemical_formula_structural       Re2GeTe6
_chemical_formula_sum              "Re2 Ge1 Te6"
_cell_length_a       6.989663542991108
_cell_length_b       6.989663512399898
_cell_length_c       6.989663380215434
_cell_angle_alpha    60.000001417486
_cell_angle_beta     60.00000112719224
_cell_angle_gamma    60.00000058272152

_space_group_name_H-M_alt    "P 1"
_space_group_IT_number       1

loop_
  _space_group_symop_operation_xyz
  'x, y, z'

loop_
  _atom_site_type_symbol
  _atom_site_label
  _atom_site_symmetry_multiplicity
  _atom_site_fract_x
  _atom_site_fract_y
  _atom_site_fract_z
  _atom_site_occupancy
  Re  Re1       1.0  0.25000010392958805  0.25000024340430244  0.24999990574496728  1.0000
  Re  Re2       1.0  0.7499998175828501  0.749999992527058  0.7499996850808976  1.0000
  Ge  Ge1       1.0  0.9999999974976673  0.9999999579466499  0.9999999879414236  1.0000
  Te  Te1       1.0  0.26542105129610294  0.26542094424100426  0.7345789844753076  1.0000
  Te  Te2       1.0  0.734579057666851  0.7345789622724517  0.26542113372246595  1.0000
  Te  Te3       1.0  0.7345788642921526  0.26542091488369673  0.2654210976505758  1.0000
  Te  Te4       1.0  0.2654211931091772  0.7345789232930656  0.7345790876497763  1.0000
  Te  Te5       1.0  0.2654209491855088  0.7345789214661672  0.2654210763462244  1.0000
  Te  Te6       1.0  0.7345789697101428  0.26542113398623646  0.734579040955466  1.0000
