data_image0
_chemical_formula_structural       Re2GeS6
_chemical_formula_sum              "Re2 Ge1 S6"
_cell_length_a       4.346306461726514
_cell_length_b       3.727061863211951
_cell_length_c       2.5956422264390917
_cell_angle_alpha    45.85046571791426
_cell_angle_beta     60.38169390797684
_cell_angle_gamma    77.79829672930468

_space_group_name_H-M_alt    "P 1"
_space_group_IT_number       1

loop_
  _space_group_symop_operation_xyz
  'x, y, z'

loop_
  _atom_site_type_symbol
  _atom_site_label
  _atom_site_symmetry_multiplicity
  _atom_site_fract_x
  _atom_site_fract_y
  _atom_site_fract_z
  _atom_site_occupancy
  Re  Re1       1.0  0.8404242255564643  0.44601487814448554  0.6222186095342599  1.0000
  Re  Re2       1.0  0.7500656976648419  0.9722484378775593  0.39541640864588407  1.0000
  Ge  Ge1       1.0  0.9481929747508503  0.16291150402178056  0.6994711702667947  1.0000
  S   S1        1.0  0.2507778550433435  0.7112779206181172  0.06818188932670617  1.0000
  S   S2        1.0  0.8011236214001167  0.35557169926078747  0.2548314669741373  1.0000
  S   S3        1.0  0.8333924296344596  0.49600670272057834  0.6532354736894239  1.0000
  S   S4        1.0  0.3460003617182889  0.3961865146506891  0.1074674371636376  1.0000
  S   S5        1.0  0.2874272390874022  0.7271070639861503  0.9539839631521756  1.0000
  S   S6        1.0  0.8086497049198678  0.36785183477600025  0.25972325769046967  1.0000
