data_image0
_chemical_formula_structural       Re2GeSe6
_chemical_formula_sum              "Re2 Ge1 Se6"
_cell_length_a       3.4681037651630238
_cell_length_b       3.8481772819765117
_cell_length_c       4.400893611771176
_cell_angle_alpha    97.20764235218427
_cell_angle_beta     59.564275614404664
_cell_angle_gamma    55.75386140901731

_space_group_name_H-M_alt    "P 1"
_space_group_IT_number       1

loop_
  _space_group_symop_operation_xyz
  'x, y, z'

loop_
  _atom_site_type_symbol
  _atom_site_label
  _atom_site_symmetry_multiplicity
  _atom_site_fract_x
  _atom_site_fract_y
  _atom_site_fract_z
  _atom_site_occupancy
  Re  Re1       1.0  0.14796199291223858  0.5781363747053136  0.26949679011232003  1.0000
  Re  Re2       1.0  0.5317274396145563  0.90981783253952  0.9326611411936119  1.0000
  Ge  Ge1       1.0  0.7727443351224492  0.05171798984620288  0.16535673674256152  1.0000
  Se  Se1       1.0  0.08102262099128522  0.3040288691580799  0.6099964335732689  1.0000
  Se  Se2       1.0  0.9144021812742754  0.7078841378386145  0.2787371172927371  1.0000
  Se  Se3       1.0  0.14239772233500037  0.3982382592334976  0.1107205097743782  1.0000
  Se  Se4       1.0  0.27527296261296536  0.4363832971559572  0.06699952050748825  1.0000
  Se  Se5       1.0  0.9648885693537762  0.8879339211784182  0.42063723034369777  1.0000
  Se  Se6       1.0  0.26619563220579495  0.6475002781061593  0.28310711040136516  1.0000
