data_image0
_chemical_formula_structural       Re2GeO6
_chemical_formula_sum              "Re2 Ge1 O6"
_cell_length_a       4.952252539537699
_cell_length_b       4.952251945562292
_cell_length_c       4.952253258919881
_cell_angle_alpha    59.99999592162939
_cell_angle_beta     59.999999900226136
_cell_angle_gamma    59.99999500819485

_space_group_name_H-M_alt    "P 1"
_space_group_IT_number       1

loop_
  _space_group_symop_operation_xyz
  'x, y, z'

loop_
  _atom_site_type_symbol
  _atom_site_label
  _atom_site_symmetry_multiplicity
  _atom_site_fract_x
  _atom_site_fract_y
  _atom_site_fract_z
  _atom_site_occupancy
  Re  Re1       1.0  0.24999954656234818  0.24999668375485953  0.25000174722569096  1.0000
  Re  Re2       1.0  0.7500001995483411  0.7500038734601278  0.7499952345317844  1.0000
  Ge  Ge1       1.0  2.1126443859487232e-08  0.9999999925806765  0.9999999386258037  1.0000
  O   O1        1.0  0.2572114212400161  0.2572092042027878  0.7427903600167226  1.0000
  O   O2        1.0  0.7427883643518339  0.7427909127992969  0.257211442225736  1.0000
  O   O3        1.0  0.7427903340729209  0.2572083717590996  0.25721238686143844  1.0000
  O   O4        1.0  0.2572101060955696  0.7427909216982779  0.7427885972456202  1.0000
  O   O5        1.0  0.2572093333881118  0.7427898830975241  0.2572115559986817  1.0000
  O   O6        1.0  0.7427906706288582  0.25721011024915286  0.7427887934380709  1.0000
