data_image0
_chemical_formula_structural       Re2IrO6
_chemical_formula_sum              "Re2 Ir1 O6"
_cell_length_a       5.325128041614943
_cell_length_b       5.325131162868238
_cell_length_c       5.325128418488875
_cell_angle_alpha    60.00001262647027
_cell_angle_beta     59.99999272663717
_cell_angle_gamma    60.00000956112834

_space_group_name_H-M_alt    "P 1"
_space_group_IT_number       1

loop_
  _space_group_symop_operation_xyz
  'x, y, z'

loop_
  _atom_site_type_symbol
  _atom_site_label
  _atom_site_symmetry_multiplicity
  _atom_site_fract_x
  _atom_site_fract_y
  _atom_site_fract_z
  _atom_site_occupancy
  Re  Re1       1.0  0.2499795067950417  0.2500253582582494  0.2500019423245813  1.0000
  Re  Re2       1.0  0.7500040063243809  0.7499805516435433  0.7500166935579239  1.0000
  Ir  Ir1       1.0  5.299464398781196e-07  0.9999998413045866  0.9999994350408974  1.0000
  O   O1        1.0  0.2522831445768089  0.25229848830040424  0.7477071885932419  1.0000
  O   O2        1.0  0.7477215084144572  0.7476976698838067  0.2522857443045365  1.0000
  O   O3        1.0  0.7477110851787162  0.2522976893241721  0.25228289708489343  1.0000
  O   O4        1.0  0.25229232490067155  0.7477038369041136  0.7477140726300767  1.0000
  O   O5        1.0  0.25229362895963275  0.7477037651060392  0.25228761834700164  1.0000
  O   O6        1.0  0.747714251918169  0.25229277946673767  0.7477043881430269  1.0000
