data_image0
_chemical_formula_structural       Re2IrSe6
_chemical_formula_sum              "Re2 Ir1 Se6"
_cell_length_a       6.061467456600593
_cell_length_b       6.0614694086259
_cell_length_c       6.061476074945887
_cell_angle_alpha    60.00000877050397
_cell_angle_beta     59.99999904853243
_cell_angle_gamma    59.99996112180008

_space_group_name_H-M_alt    "P 1"
_space_group_IT_number       1

loop_
  _space_group_symop_operation_xyz
  'x, y, z'

loop_
  _atom_site_type_symbol
  _atom_site_label
  _atom_site_symmetry_multiplicity
  _atom_site_fract_x
  _atom_site_fract_y
  _atom_site_fract_z
  _atom_site_occupancy
  Re  Re1       1.0  0.24998768212304792  0.2500153574498113  0.24996742628778484  1.0000
  Re  Re2       1.0  0.7500069373101753  0.7500240524847421  0.7499458432593631  1.0000
  Ir  Ir1       1.0  3.6427451668213044e-07  0.9999979127817297  4.071910425350787e-06  1.0000
  Se  Se1       1.0  0.2765326360894651  0.27653686801279176  0.7234788850218382  1.0000
  Se  Se2       1.0  0.7234745631498973  0.7234518526296914  0.27655478915634163  1.0000
  Se  Se3       1.0  0.723470552301691  0.276516907503227  0.2765571911905438  1.0000
  Se  Se4       1.0  0.2765377989376971  0.7234614477581423  0.7234702705281588  1.0000
  Se  Se5       1.0  0.2765302866404096  0.723464857023995  0.2765468378030903  1.0000
  Se  Se6       1.0  0.7234590755337635  0.27653086075681715  0.7234746137673277  1.0000
