data_image0
_chemical_formula_structural       Re2IrS6
_chemical_formula_sum              "Re2 Ir1 S6"
_cell_length_a       5.703472355194636
_cell_length_b       5.703472965807683
_cell_length_c       5.70347261418023
_cell_angle_alpha    60.00000422369478
_cell_angle_beta     59.9999997038443
_cell_angle_gamma    60.000001855039784

_space_group_name_H-M_alt    "P 1"
_space_group_IT_number       1

loop_
  _space_group_symop_operation_xyz
  'x, y, z'

loop_
  _atom_site_type_symbol
  _atom_site_label
  _atom_site_symmetry_multiplicity
  _atom_site_fract_x
  _atom_site_fract_y
  _atom_site_fract_z
  _atom_site_occupancy
  Re  Re1       1.0  0.2499995004731505  0.25000021127570493  0.2500000212956507  1.0000
  Re  Re2       1.0  0.7500000843287138  0.7499999058697606  0.7499996434242715  1.0000
  Ir  Ir1       1.0  5.441742232222231e-08  1.2884198690750142e-08  0.9999999453093767  1.0000
  S   S1        1.0  0.27583113286104466  0.2758312279478861  0.7241688224232091  1.0000
  S   S2        1.0  0.7241689950976457  0.7241687174082424  0.2758312948206463  1.0000
  S   S3        1.0  0.7241690145713432  0.2758310415751511  0.2758312633072569  1.0000
  S   S4        1.0  0.2758311981135255  0.7241688135915738  0.7241688864746127  1.0000
  S   S5        1.0  0.275831130632359  0.7241688539225312  0.2758312498184409  1.0000
  S   S6        1.0  0.72416887304935  0.27583120309666953  0.7241688614591453  1.0000
