data_image0
_chemical_formula_structural       Re2MnS6
_chemical_formula_sum              "Re2 Mn1 S6"
_cell_length_a       5.6184135132827695
_cell_length_b       5.618413689029502
_cell_length_c       5.618413695237421
_cell_angle_alpha    59.99999915871281
_cell_angle_beta     59.99999843000312
_cell_angle_gamma    59.99999917027484

_space_group_name_H-M_alt    "P 1"
_space_group_IT_number       1

loop_
  _space_group_symop_operation_xyz
  'x, y, z'

loop_
  _atom_site_type_symbol
  _atom_site_label
  _atom_site_symmetry_multiplicity
  _atom_site_fract_x
  _atom_site_fract_y
  _atom_site_fract_z
  _atom_site_occupancy
  Re  Re1       1.0  0.24999987152722727  0.2500001068114386  0.25000002125086446  1.0000
  Re  Re2       1.0  0.7499999816198659  0.7499998975382419  0.7500003159441281  1.0000
  Mn  Mn1       1.0  0.9999999716829926  4.79572865069958e-08  0.9999999795006894  1.0000
  S   S1        1.0  0.2673724988278967  0.26737251881953483  0.7326274822707073  1.0000
  S   S2        1.0  0.7326275261053329  0.7326274942496537  0.26737239801992857  1.0000
  S   S3        1.0  0.732627540202273  0.2673725082775753  0.26737242983995413  1.0000
  S   S4        1.0  0.2673725421734867  0.7326274742733393  0.7326274743656519  1.0000
  S   S5        1.0  0.267372540959724  0.7326274972598601  0.267372410755794  1.0000
  S   S6        1.0  0.7326275137437641  0.26737246349228855  0.7326275057262981  1.0000
