data_image0
_chemical_formula_structural       Re2MnO6
_chemical_formula_sum              "Re2 Mn1 O6"
_cell_length_a       4.85841172564555
_cell_length_b       4.858411816414263
_cell_length_c       4.858411875825541
_cell_angle_alpha    60.00000614492211
_cell_angle_beta     60.000006090496925
_cell_angle_gamma    60.000004490513284

_space_group_name_H-M_alt    "P 1"
_space_group_IT_number       1

loop_
  _space_group_symop_operation_xyz
  'x, y, z'

loop_
  _atom_site_type_symbol
  _atom_site_label
  _atom_site_symmetry_multiplicity
  _atom_site_fract_x
  _atom_site_fract_y
  _atom_site_fract_z
  _atom_site_occupancy
  Re  Re1       1.0  0.24999526786595794  0.2500032851166707  0.2500016965631862  1.0000
  Re  Re2       1.0  0.7499947758883381  0.750001697798881  0.7499986865335398  1.0000
  Mn  Mn1       1.0  0.9999998562444122  6.050099351529159e-08  8.694720150218245e-09  1.0000
  O   O1        1.0  0.25629298689607016  0.2562893092730049  0.7437084284732286  1.0000
  O   O2        1.0  0.7437107713937589  0.7437074782787373  0.25629245947918916  1.0000
  O   O3        1.0  0.7437102543465541  0.2562905712900662  0.2562912025862931  1.0000
  O   O4        1.0  0.256293017047682  0.7437080691046825  0.7437095931204977  1.0000
  O   O5        1.0  0.25629230824131083  0.7437083081877288  0.25629025127166377  1.0000
  O   O6        1.0  0.7437107810441368  0.25629119938783174  0.7437076763825159  1.0000
