data_image0
_chemical_formula_structural       Re2MnTe6
_chemical_formula_sum              "Re2 Mn1 Te6"
_cell_length_a       6.752006369240754
_cell_length_b       6.752006413521974
_cell_length_c       6.752006397409152
_cell_angle_alpha    59.99999966870679
_cell_angle_beta     59.99999978804981
_cell_angle_gamma    59.99999955928898

_space_group_name_H-M_alt    "P 1"
_space_group_IT_number       1

loop_
  _space_group_symop_operation_xyz
  'x, y, z'

loop_
  _atom_site_type_symbol
  _atom_site_label
  _atom_site_symmetry_multiplicity
  _atom_site_fract_x
  _atom_site_fract_y
  _atom_site_fract_z
  _atom_site_occupancy
  Re  Re1       1.0  0.24999991082017983  0.2500000671580722  0.2500000354656346  1.0000
  Re  Re2       1.0  0.7500002512286479  0.7500000509207064  0.7500000837231012  1.0000
  Mn  Mn1       1.0  2.3044178568885874e-08  0.999999987302716  3.925779028444896e-08  1.0000
  Te  Te1       1.0  0.2562551659106603  0.2562553056053754  0.7437447414723911  1.0000
  Te  Te2       1.0  0.7437447316177904  0.7437447235924195  0.25625521673962043  1.0000
  Te  Te3       1.0  0.7437447186884372  0.2562552739102215  0.2562552219701022  1.0000
  Te  Te4       1.0  0.2562552213361727  0.7437446791038711  0.7437447027302785  1.0000
  Te  Te5       1.0  0.25625519559456195  0.7437447574184322  0.2562552982845926  1.0000
  Te  Te6       1.0  0.74374478106956  0.2562551575038089  0.7437446567627831  1.0000
