data_image0
_chemical_formula_structural       Re2MnSe6
_chemical_formula_sum              "Re2 Mn1 Se6"
_cell_length_a       5.87917023341254
_cell_length_b       5.879170292562828
_cell_length_c       5.879170004254873
_cell_angle_alpha    60.00000053382704
_cell_angle_beta     60.00000205513876
_cell_angle_gamma    60.00000184477813

_space_group_name_H-M_alt    "P 1"
_space_group_IT_number       1

loop_
  _space_group_symop_operation_xyz
  'x, y, z'

loop_
  _atom_site_type_symbol
  _atom_site_label
  _atom_site_symmetry_multiplicity
  _atom_site_fract_x
  _atom_site_fract_y
  _atom_site_fract_z
  _atom_site_occupancy
  Re  Re1       1.0  0.2500006323249049  0.24999987643103652  0.249999358541728  1.0000
  Re  Re2       1.0  0.7499999769298753  0.7500004459048852  0.7499989079935586  1.0000
  Mn  Mn1       1.0  0.9999999981346471  2.916470518703461e-08  1.2072303256170098e-07  1.0000
  Se  Se1       1.0  0.27836803962223666  0.27836772995089676  0.7216320780917015  1.0000
  Se  Se2       1.0  0.7216319388618506  0.7216321278328705  0.27836831796094985  1.0000
  Se  Se3       1.0  0.7216320146108861  0.27836775328039803  0.2783682696848391  1.0000
  Se  Se4       1.0  0.27836797663108187  0.7216320190924403  0.7216322018155057  1.0000
  Se  Se5       1.0  0.2783677081922429  0.7216321070885993  0.2783682874045624  1.0000
  Se  Se6       1.0  0.7216317186480177  0.278367909017855  0.7216324873071336  1.0000
