data_image0
_chemical_formula_structural       Re2NiTe6
_chemical_formula_sum              "Re2 Ni1 Te6"
_cell_length_a       6.724103407245347
_cell_length_b       6.724103629446332
_cell_length_c       6.72410340994648
_cell_angle_alpha    60.00000134083311
_cell_angle_beta     60.00000037080485
_cell_angle_gamma    60.000000205121054

_space_group_name_H-M_alt    "P 1"
_space_group_IT_number       1

loop_
  _space_group_symop_operation_xyz
  'x, y, z'

loop_
  _atom_site_type_symbol
  _atom_site_label
  _atom_site_symmetry_multiplicity
  _atom_site_fract_x
  _atom_site_fract_y
  _atom_site_fract_z
  _atom_site_occupancy
  Re  Re1       1.0  0.2500000538766802  0.2499997415939891  0.25000015479539894  1.0000
  Re  Re2       1.0  0.7499998701484576  0.7500001919584939  0.7499999346915874  1.0000
  Ni  Ni1       1.0  2.504752588205587e-08  7.285698509979259e-09  0.9999999555768325  1.0000
  Te  Te1       1.0  0.25662778337585973  0.2566275789460303  0.7433722977903173  1.0000
  Te  Te2       1.0  0.7433722113335265  0.7433724001420696  0.25662763691957347  1.0000
  Te  Te3       1.0  0.7433723289961944  0.2566276509761558  0.2566277085687573  1.0000
  Te  Te4       1.0  0.2566276603352146  0.7433723700047126  0.7433723491665145  1.0000
  Te  Te5       1.0  0.25662765677027977  0.7433723801996281  0.25662766177087726  1.0000
  Te  Te6       1.0  0.74337240173646  0.2566276753883091  0.7433723113550783  1.0000
