data_image0
_chemical_formula_structural       Re2NiSe6
_chemical_formula_sum              "Re2 Ni1 Se6"
_cell_length_a       5.80846159767845
_cell_length_b       5.808461580636515
_cell_length_c       5.8084620953296024
_cell_angle_alpha    59.99999764264233
_cell_angle_beta     59.99999737795967
_cell_angle_gamma    59.999997680569706

_space_group_name_H-M_alt    "P 1"
_space_group_IT_number       1

loop_
  _space_group_symop_operation_xyz
  'x, y, z'

loop_
  _atom_site_type_symbol
  _atom_site_label
  _atom_site_symmetry_multiplicity
  _atom_site_fract_x
  _atom_site_fract_y
  _atom_site_fract_z
  _atom_site_occupancy
  Re  Re1       1.0  0.24999904663312902  0.2500003480374331  0.2500006574851478  1.0000
  Re  Re2       1.0  0.7499994944536721  0.7500008627767187  0.7499998442622978  1.0000
  Ni  Ni1       1.0  1.138583125914654e-07  0.9999998671611604  0.9999999509549754  1.0000
  Se  Se1       1.0  0.2679931271088456  0.2679927008966685  0.7320070212498154  1.0000
  Se  Se2       1.0  0.7320075069523104  0.7320066860191292  0.2679930395101779  1.0000
  Se  Se3       1.0  0.7320071933849845  0.2679926666070176  0.26799306890026936  1.0000
  Se  Se4       1.0  0.2679929978528586  0.7320072854009844  0.7320068360358439  1.0000
  Se  Se5       1.0  0.2679930435905206  0.7320070676818772  0.26799278958225986  1.0000
  Se  Se6       1.0  0.7320074699042026  0.26799252587211203  0.732006792570449  1.0000
