data_image0
_chemical_formula_structural       Re2NiO6
_chemical_formula_sum              "Re2 Ni1 O6"
_cell_length_a       4.9357337672960515
_cell_length_b       4.935733882076917
_cell_length_c       4.935733646515902
_cell_angle_alpha    59.99999750623008
_cell_angle_beta     59.99999732827979
_cell_angle_gamma    59.99999903039603

_space_group_name_H-M_alt    "P 1"
_space_group_IT_number       1

loop_
  _space_group_symop_operation_xyz
  'x, y, z'

loop_
  _atom_site_type_symbol
  _atom_site_label
  _atom_site_symmetry_multiplicity
  _atom_site_fract_x
  _atom_site_fract_y
  _atom_site_fract_z
  _atom_site_occupancy
  Re  Re1       1.0  0.25000182463575166  0.24999777381306926  0.2499958480893988  1.0000
  Re  Re2       1.0  0.7500040882478648  0.7499992891661192  0.7500025900693222  1.0000
  Ni  Ni1       1.0  0.9999997819547692  1.0669949193145933e-07  7.998536695752133e-08  1.0000
  O   O1        1.0  0.2519427094081316  0.2519458816304208  0.7480568213348303  1.0000
  O   O2        1.0  0.7480549122583229  0.7480561788552548  0.25194307728349696  1.0000
  O   O3        1.0  0.7480561994697463  0.2519442415998527  0.25194479116727614  1.0000
  O   O4        1.0  0.2519420533683026  0.7480557990396027  0.7480556660436453  1.0000
  O   O5        1.0  0.2519447991677887  0.748056807970885  0.2519437297959289  1.0000
  O   O6        1.0  0.7480535472608961  0.25194392745593436  0.7480574333663711  1.0000
