data_image0
_chemical_formula_structural       Re2NiS6
_chemical_formula_sum              "Re2 Ni1 S6"
_cell_length_a       5.52782156192399
_cell_length_b       5.527821441315259
_cell_length_c       5.527821448875652
_cell_angle_alpha    60.00000004709064
_cell_angle_beta     60.000001813494755
_cell_angle_gamma    59.99999935909262

_space_group_name_H-M_alt    "P 1"
_space_group_IT_number       1

loop_
  _space_group_symop_operation_xyz
  'x, y, z'

loop_
  _atom_site_type_symbol
  _atom_site_label
  _atom_site_symmetry_multiplicity
  _atom_site_fract_x
  _atom_site_fract_y
  _atom_site_fract_z
  _atom_site_occupancy
  Re  Re1       1.0  0.2500001901195882  0.24999980410747424  0.24999999536114706  1.0000
  Re  Re2       1.0  0.7499997894397572  0.750000125746072  0.749999797320309  1.0000
  Ni  Ni1       1.0  0.9999999717257726  2.2156013998741803e-08  0.9999999922049209  1.0000
  S   S1        1.0  0.2610848273354938  0.26108475741707265  0.7389152446243351  1.0000
  S   S2        1.0  0.7389152540508209  0.738915236688912  0.26108474179915103  1.0000
  S   S3        1.0  0.7389151131575467  0.2610846773657762  0.261084912743637  1.0000
  S   S4        1.0  0.261084922780063  0.738915290152992  0.7389152110035417  1.0000
  S   S5        1.0  0.261084706168555  0.7389153094305967  0.2610848470861314  1.0000
  S   S6        1.0  0.7389152495875181  0.2610847732994436  0.7389152428649005  1.0000
