data_image0
_chemical_formula_structural       Re2OsO6
_chemical_formula_sum              "Re2 Os1 O6"
_cell_length_a       7.107066219390301
_cell_length_b       5.8603684068204585
_cell_length_c       5.726594393387065
_cell_angle_alpha    60.85952433449429
_cell_angle_beta     66.35595889305293
_cell_angle_gamma    57.98167807192293

_space_group_name_H-M_alt    "P 1"
_space_group_IT_number       1

loop_
  _space_group_symop_operation_xyz
  'x, y, z'

loop_
  _atom_site_type_symbol
  _atom_site_label
  _atom_site_symmetry_multiplicity
  _atom_site_fract_x
  _atom_site_fract_y
  _atom_site_fract_z
  _atom_site_occupancy
  Re  Re1       1.0  0.7409173577888111  0.47321235926618255  0.3929760344642585  1.0000
  Re  Re2       1.0  0.37705253018374274  0.863168080411207  0.8797678588654425  1.0000
  Os  Os1       1.0  0.9943402376119252  0.9880537012150901  0.008593019289225274  1.0000
  O   O1        1.0  0.22823420258980104  0.2442299652989994  0.7644437657265737  1.0000
  O   O2        1.0  0.9006971374034881  0.6923207090054049  0.2037391917344428  1.0000
  O   O3        1.0  0.8717810186329799  0.19339029551704004  0.23787419302554053  1.0000
  O   O4        1.0  0.5076654436628859  0.6763306787132872  0.6371056024265447  1.0000
  O   O5        1.0  0.5078058551010731  0.6756170256926124  0.17852773891707152  1.0000
  O   O6        1.0  0.8715077527364459  0.19367695679422878  0.6969667799419598  1.0000
