data_image0
_chemical_formula_structural       Re2OsS6
_chemical_formula_sum              "Re2 Os1 S6"
_cell_length_a       5.673799850162843
_cell_length_b       5.673799996739896
_cell_length_c       5.673799664616584
_cell_angle_alpha    60.00000018162501
_cell_angle_beta     60.00000061874486
_cell_angle_gamma    60.00000194404822

_space_group_name_H-M_alt    "P 1"
_space_group_IT_number       1

loop_
  _space_group_symop_operation_xyz
  'x, y, z'

loop_
  _atom_site_type_symbol
  _atom_site_label
  _atom_site_symmetry_multiplicity
  _atom_site_fract_x
  _atom_site_fract_y
  _atom_site_fract_z
  _atom_site_occupancy
  Re  Re1       1.0  0.25000007952737574  0.2500001273100047  0.24999993075898147  1.0000
  Re  Re2       1.0  0.7499998675121987  0.7500000969951848  0.7499999933802409  1.0000
  Os  Os1       1.0  0.9999999708907099  3.237895591308589e-08  6.181471047490142e-08  1.0000
  S   S1        1.0  0.2771443186987646  0.27714431612248497  0.7228556418807857  1.0000
  S   S2        1.0  0.7228557384080802  0.7228556146134916  0.2771443651969747  1.0000
  S   S3        1.0  0.7228556273377938  0.27714432684944196  0.27714431516834626  1.0000
  S   S4        1.0  0.27714435724454445  0.7228555650317846  0.7228557440740685  1.0000
  S   S5        1.0  0.2771443839885267  0.7228556680963647  0.2771442460060819  1.0000
  S   S6        1.0  0.7228556391169338  0.27714426695680683  0.7228557124642295  1.0000
