data_image0
_chemical_formula_structural       Re2OsSe6
_chemical_formula_sum              "Re2 Os1 Se6"
_cell_length_a       6.705851144313583
_cell_length_b       6.3685225879079805
_cell_length_c       6.692525538119361
_cell_angle_alpha    58.716233615646054
_cell_angle_beta     74.57823778731533
_cell_angle_gamma    58.8981329985351

_space_group_name_H-M_alt    "P 1"
_space_group_IT_number       1

loop_
  _space_group_symop_operation_xyz
  'x, y, z'

loop_
  _atom_site_type_symbol
  _atom_site_label
  _atom_site_symmetry_multiplicity
  _atom_site_fract_x
  _atom_site_fract_y
  _atom_site_fract_z
  _atom_site_occupancy
  Re  Re1       1.0  0.4491079460952943  0.17164767259111535  0.06812079109266503  1.0000
  Re  Re2       1.0  0.9313726612652398  0.8286303927121641  0.5510327754980049  1.0000
  Os  Os1       1.0  0.9263015933277148  0.0002901913028024748  0.07375152265649586  1.0000
  Se  Se1       1.0  0.12389993945847813  0.3161363627017602  0.7911175234619837  1.0000
  Se  Se2       1.0  0.7729182673853435  0.6874656602266883  0.37076127130775105  1.0000
  Se  Se3       1.0  0.6307930861399368  0.3138562701387471  0.22474665370788502  1.0000
  Se  Se4       1.0  0.2086138214667812  0.6825617174942131  0.8769470484003266  1.0000
  Se  Se5       1.0  0.25490409706398054  0.8766088670249056  0.2985125729660191  1.0000
  Se  Se6       1.0  0.7020970533576014  0.12282671057398821  0.7450165231369286  1.0000
