data_image0
_chemical_formula_structural       Re2PtO6
_chemical_formula_sum              "Re2 Pt1 O6"
_cell_length_a       5.3838215787602195
_cell_length_b       5.383820837526182
_cell_length_c       5.383820061771592
_cell_angle_alpha    59.9999491211832
_cell_angle_beta     59.99995722017621
_cell_angle_gamma    59.99996232629693

_space_group_name_H-M_alt    "P 1"
_space_group_IT_number       1

loop_
  _space_group_symop_operation_xyz
  'x, y, z'

loop_
  _atom_site_type_symbol
  _atom_site_label
  _atom_site_symmetry_multiplicity
  _atom_site_fract_x
  _atom_site_fract_y
  _atom_site_fract_z
  _atom_site_occupancy
  Re  Re1       1.0  0.2499569261769011  0.25001170184627214  0.25001385888098987  1.0000
  Re  Re2       1.0  0.7499591644478717  0.7500268750595438  0.7500514541283527  1.0000
  Pt  Pt1       1.0  3.6062473358804656e-07  0.9999999090054984  0.9999997853158406  1.0000
  O   O1        1.0  0.25272354875936814  0.2526925656660467  0.747291487787386  1.0000
  O   O2        1.0  0.7473077056872071  0.7472783136129657  0.25268457728800026  1.0000
  O   O3        1.0  0.7473073594385293  0.2527104761246167  0.25270197469586564  1.0000
  O   O4        1.0  0.25271048103406885  0.7472920874372986  0.7472903981178604  1.0000
  O   O5        1.0  0.25272926965156217  0.7472947179620039  0.2526861992595261  1.0000
  O   O6        1.0  0.7473051546740754  0.2526933410829429  0.7472802314932948  1.0000
