data_image0
_chemical_formula_structural       Re2PdSe6
_chemical_formula_sum              "Re2 Pd1 Se6"
_cell_length_a       5.618024784742687
_cell_length_b       5.61802273467372
_cell_length_c       5.618023153502683
_cell_angle_alpha    59.99999601035358
_cell_angle_beta     60.000000991203706
_cell_angle_gamma    60.00000756747319

_space_group_name_H-M_alt    "P 1"
_space_group_IT_number       1

loop_
  _space_group_symop_operation_xyz
  'x, y, z'

loop_
  _atom_site_type_symbol
  _atom_site_label
  _atom_site_symmetry_multiplicity
  _atom_site_fract_x
  _atom_site_fract_y
  _atom_site_fract_z
  _atom_site_occupancy
  Re  Re1       1.0  0.2500037991104299  0.24999879570716566  0.25000167973175574  1.0000
  Re  Re2       1.0  0.7500022010049504  0.7500005204536566  0.7500021702167673  1.0000
  Pd  Pd1       1.0  0.9999989277059623  2.2018266702514633e-07  0.9999995075832119  1.0000
  Se  Se1       1.0  0.2769128056299802  0.2769145330856276  0.7230854027910637  1.0000
  Se  Se2       1.0  0.7230856781865765  0.7230854240021097  0.27691400662787696  1.0000
  Se  Se3       1.0  0.7230849158630899  0.27691436793121244  0.2769137524372728  1.0000
  Se  Se4       1.0  0.2769134999522108  0.723086101463176  0.7230846783351126  1.0000
  Se  Se5       1.0  0.2769141448573053  0.7230856826211907  0.276913319384534  1.0000
  Se  Se6       1.0  0.7230841702318039  0.2769143921880402  0.7230854231230166  1.0000
