data_image0
_chemical_formula_structural       Re2PS6
_chemical_formula_sum              "Re2 P1 S6"
_cell_length_a       5.5161692904262
_cell_length_b       5.516169115781783
_cell_length_c       5.516169263394071
_cell_angle_alpha    60.00000021797417
_cell_angle_beta     60.0000003607576
_cell_angle_gamma    60.00000013913654

_space_group_name_H-M_alt    "P 1"
_space_group_IT_number       1

loop_
  _space_group_symop_operation_xyz
  'x, y, z'

loop_
  _atom_site_type_symbol
  _atom_site_label
  _atom_site_symmetry_multiplicity
  _atom_site_fract_x
  _atom_site_fract_y
  _atom_site_fract_z
  _atom_site_occupancy
  Re  Re1       1.0  0.25000004466546555  0.2500000748557761  0.2499998680644427  1.0000
  Re  Re2       1.0  0.7500000096064879  0.7500000513853665  0.7499999886500571  1.0000
  P   P1        1.0  1.0339527223084037e-08  6.660845349615616e-09  3.6821120666826345e-08  1.0000
  S   S1        1.0  0.274897065361195  0.2748969841926268  0.7251029573710245  1.0000
  S   S2        1.0  0.7251029143791455  0.7251029888490859  0.27489701139614314  1.0000
  S   S3        1.0  0.7251029337295494  0.2748970129297084  0.2748970547607195  1.0000
  S   S4        1.0  0.27489706206068226  0.7251028868427132  0.7251030459487273  1.0000
  S   S5        1.0  0.27489696904061545  0.7251029748022167  0.27489707012366643  1.0000
  S   S6        1.0  0.7251030090925573  0.2748970093409047  0.7251029700361765  1.0000
