data_image0
_chemical_formula_structural       Re2PO6
_chemical_formula_sum              "Re2 P1 O6"
_cell_length_a       4.830658412577546
_cell_length_b       4.8306580451422505
_cell_length_c       4.830658193793996
_cell_angle_alpha    59.99999918389198
_cell_angle_beta     59.99999888534337
_cell_angle_gamma    59.999996961935636

_space_group_name_H-M_alt    "P 1"
_space_group_IT_number       1

loop_
  _space_group_symop_operation_xyz
  'x, y, z'

loop_
  _atom_site_type_symbol
  _atom_site_label
  _atom_site_symmetry_multiplicity
  _atom_site_fract_x
  _atom_site_fract_y
  _atom_site_fract_z
  _atom_site_occupancy
  Re  Re1       1.0  0.24999934817365208  0.2500002707472071  0.24999997961549564  1.0000
  Re  Re2       1.0  0.7500007572801075  0.7499998665529463  0.7499997384479151  1.0000
  P   P1        1.0  1.040655247537382e-08  0.999999997464642  3.332640552500532e-08  1.0000
  O   O1        1.0  0.24204936194977827  0.24204964683397218  0.7579505318145059  1.0000
  O   O2        1.0  0.7579506711926166  0.7579503129911043  0.24204957404625882  1.0000
  O   O3        1.0  0.7579505417581671  0.24204968746697225  0.24204930715945547  1.0000
  O   O4        1.0  0.24204949969042502  0.7579502546105948  0.7579507226876253  1.0000
  O   O5        1.0  0.24204922713795102  0.7579506970949155  0.24204977493624263  1.0000
  O   O6        1.0  0.757950688006877  0.24204930836661157  0.7579503505441925  1.0000
