data_image0
_chemical_formula_structural       Re2PtSe6
_chemical_formula_sum              "Re2 Pt1 Se6"
_cell_length_a       3.5102488832610326
_cell_length_b       4.852007089395395
_cell_length_c       2.79708569821488
_cell_angle_alpha    113.61420938119659
_cell_angle_beta     84.08366598519832
_cell_angle_gamma    71.50133430131864

_space_group_name_H-M_alt    "P 1"
_space_group_IT_number       1

loop_
  _space_group_symop_operation_xyz
  'x, y, z'

loop_
  _atom_site_type_symbol
  _atom_site_label
  _atom_site_symmetry_multiplicity
  _atom_site_fract_x
  _atom_site_fract_y
  _atom_site_fract_z
  _atom_site_occupancy
  Re  Re1       1.0  0.10326379733081484  0.45414220397052446  0.4366682282267456  1.0000
  Re  Re2       1.0  0.8490436299463215  0.34980050137512353  0.6922042765113955  1.0000
  Pt  Pt1       1.0  0.8265211479492959  0.43649463897834573  0.13665227439697203  1.0000
  Se  Se1       1.0  0.8263673451134028  0.13934362842062997  0.5834226106020538  1.0000
  Se  Se2       1.0  0.14852215748683117  0.055438095590287784  0.04001436432038177  1.0000
  Se  Se3       1.0  0.5668796404896462  0.4464466881857573  0.7542843953511177  1.0000
  Se  Se4       1.0  0.031528315548065705  0.20996757106665376  0.6692290020078461  1.0000
  Se  Se5       1.0  0.582346095284957  0.23628769861148058  0.7195969511230225  1.0000
  Se  Se6       1.0  0.019339782621014434  0.6795596769506815  0.7206013840965513  1.0000
