data_image0
_chemical_formula_structural       Re2PSe6
_chemical_formula_sum              "Re2 P1 Se6"
_cell_length_a       5.737111017268001
_cell_length_b       5.737110775606334
_cell_length_c       5.7371114124473275
_cell_angle_alpha    60.000004065680336
_cell_angle_beta     60.0000060764647
_cell_angle_gamma    60.00000154070053

_space_group_name_H-M_alt    "P 1"
_space_group_IT_number       1

loop_
  _space_group_symop_operation_xyz
  'x, y, z'

loop_
  _atom_site_type_symbol
  _atom_site_label
  _atom_site_symmetry_multiplicity
  _atom_site_fract_x
  _atom_site_fract_y
  _atom_site_fract_z
  _atom_site_occupancy
  Re  Re1       1.0  0.2499995513298827  0.2500001157752775  0.25000003192219294  1.0000
  Re  Re2       1.0  0.7499993460430813  0.7500006803509135  0.749999196273073  1.0000
  P   P1        1.0  9.744262674995769e-08  0.9999999914608958  0.9999999921520306  1.0000
  Se  Se1       1.0  0.2807628986421561  0.28076262073172786  0.7192373995316816  1.0000
  Se  Se2       1.0  0.7192375037917823  0.7192370717151547  0.280762935250863  1.0000
  Se  Se3       1.0  0.7192374821676809  0.2807624592407976  0.28076290153585387  1.0000
  Se  Se4       1.0  0.28076293364346394  0.7192372353408564  0.7192373400818682  1.0000
  Se  Se5       1.0  0.28076280287635474  0.7192372149925264  0.28076281942689685  1.0000
  Se  Se6       1.0  0.719237382815251  0.2807626204843636  0.7192373831371733  1.0000
