data_image0
_chemical_formula_structural       Re2PtS6
_chemical_formula_sum              "Re2 Pt1 S6"
_cell_length_a       5.709184477935561
_cell_length_b       5.709184489160026
_cell_length_c       5.7091843950763
_cell_angle_alpha    60.00000030089977
_cell_angle_beta     60.000001429152405
_cell_angle_gamma    60.00000022073077

_space_group_name_H-M_alt    "P 1"
_space_group_IT_number       1

loop_
  _space_group_symop_operation_xyz
  'x, y, z'

loop_
  _atom_site_type_symbol
  _atom_site_label
  _atom_site_symmetry_multiplicity
  _atom_site_fract_x
  _atom_site_fract_y
  _atom_site_fract_z
  _atom_site_occupancy
  Re  Re1       1.0  0.2500000437829548  0.25000004449997465  0.2500000224292726  1.0000
  Re  Re2       1.0  0.749999971894837  0.7500001871303908  0.7499998119243901  1.0000
  Pt  Pt1       1.0  0.999999962756674  8.580874289182908e-09  3.885311703790229e-08  1.0000
  S   S1        1.0  0.27396444849993007  0.27396427813805807  0.7260356880465301  1.0000
  S   S2        1.0  0.7260356206682043  0.7260356231286434  0.2739644406329614  1.0000
  S   S3        1.0  0.7260355567207784  0.27396429785430965  0.273964411761338  1.0000
  S   S4        1.0  0.27396438796875094  0.726035661333295  0.7260356083203457  1.0000
  S   S5        1.0  0.27396432084815914  0.7260356191565858  0.2739644000008804  1.0000
  S   S6        1.0  0.7260356797782281  0.27396430570752134  0.7260356057709964  1.0000
