data_image0
_chemical_formula_structural       Re2PdO6
_chemical_formula_sum              "Re2 Pd1 O6"
_cell_length_a       4.933593300321504
_cell_length_b       4.933593670458294
_cell_length_c       4.9335934691508125
_cell_angle_alpha    60.000000167052896
_cell_angle_beta     59.999997747126244
_cell_angle_gamma    59.999997249199716

_space_group_name_H-M_alt    "P 1"
_space_group_IT_number       1

loop_
  _space_group_symop_operation_xyz
  'x, y, z'

loop_
  _atom_site_type_symbol
  _atom_site_label
  _atom_site_symmetry_multiplicity
  _atom_site_fract_x
  _atom_site_fract_y
  _atom_site_fract_z
  _atom_site_occupancy
  Re  Re1       1.0  0.24999950031551324  0.25000017085657006  0.25000010035354026  1.0000
  Re  Re2       1.0  0.7500024131812342  0.7499987674001961  0.7499995458890769  1.0000
  Pd  Pd1       1.0  0.9999999754593462  5.957904014804333e-08  0.9999999561308446  1.0000
  O   O1        1.0  0.2702483135319469  0.27024961856671187  0.7297510760370978  1.0000
  O   O2        1.0  0.7297512151508684  0.7297507446221688  0.27024889001974417  1.0000
  O   O3        1.0  0.7297511631129981  0.2702489509974501  0.2702491114962517  1.0000
  O   O4        1.0  0.2702482566784146  0.7297513948142176  0.7297506825721618  1.0000
  O   O5        1.0  0.27024846915229034  0.7297509695631968  0.27024938817138355  1.0000
  O   O6        1.0  0.7297507093094748  0.2702493489414158  0.7297511726144695  1.0000
