data_image0
_chemical_formula_structural       Re2PdS6
_chemical_formula_sum              "Re2 Pd1 S6"
_cell_length_a       5.731673995220538
_cell_length_b       5.731674247572692
_cell_length_c       5.731673697106472
_cell_angle_alpha    60.000000059170944
_cell_angle_beta     60.00000084993284
_cell_angle_gamma    59.999998622419376

_space_group_name_H-M_alt    "P 1"
_space_group_IT_number       1

loop_
  _space_group_symop_operation_xyz
  'x, y, z'

loop_
  _atom_site_type_symbol
  _atom_site_label
  _atom_site_symmetry_multiplicity
  _atom_site_fract_x
  _atom_site_fract_y
  _atom_site_fract_z
  _atom_site_occupancy
  Re  Re1       1.0  0.24999987855261838  0.25000009452277605  0.2500000253707668  1.0000
  Re  Re2       1.0  0.7500001682132008  0.7499996831271626  0.7500000385228863  1.0000
  Pd  Pd1       1.0  3.447156966484421e-08  2.350481308715333e-08  0.9999999675224257  1.0000
  S   S1        1.0  0.27441894411378037  0.274419030267302  0.7255810294683703  1.0000
  S   S2        1.0  0.7255809681976902  0.7255810721764314  0.2744189479790086  1.0000
  S   S3        1.0  0.7255810721737773  0.27441909636671397  0.274418842930118  1.0000
  S   S4        1.0  0.2744190105648165  0.7255809782985978  0.7255810963420404  1.0000
  S   S5        1.0  0.2744188626576855  0.72558095643462  0.2744190675668951  1.0000
  S   S6        1.0  0.7255810961326579  0.2744191032730876  0.7255808957962235  1.0000
