data_image0
_chemical_formula_structural       Re2RhO6
_chemical_formula_sum              "Re2 Rh1 O6"
_cell_length_a       5.165971987067807
_cell_length_b       5.16597246855481
_cell_length_c       5.165968274445686
_cell_angle_alpha    59.999977167000985
_cell_angle_beta     59.99997295730118
_cell_angle_gamma    60.00000173268877

_space_group_name_H-M_alt    "P 1"
_space_group_IT_number       1

loop_
  _space_group_symop_operation_xyz
  'x, y, z'

loop_
  _atom_site_type_symbol
  _atom_site_label
  _atom_site_symmetry_multiplicity
  _atom_site_fract_x
  _atom_site_fract_y
  _atom_site_fract_z
  _atom_site_occupancy
  Re  Re1       1.0  0.24999752023469993  0.2500175807803869  0.2500041862599208  1.0000
  Re  Re2       1.0  0.7499860105529884  0.7499949898223648  0.7500550431485632  1.0000
  Rh  Rh1       1.0  1.837636367569664e-07  0.9999998577527344  0.9999992475299866  1.0000
  O   O1        1.0  0.2622289067805289  0.262219657171588  0.7377676046577729  1.0000
  O   O2        1.0  0.737778703722159  0.7377729513914139  0.2622043814935025  1.0000
  O   O3        1.0  0.7377736221085613  0.2622390760502185  0.26220697829157563  1.0000
  O   O4        1.0  0.26221972976547037  0.7377683191392237  0.7377807544120168  1.0000
  O   O5        1.0  0.262237215952279  0.7377698873601615  0.2622098029944614  1.0000
  O   O6        1.0  0.737778050772423  0.26221772356879286  0.7377719611696234  1.0000
