data_image0
_chemical_formula_structural       Re2RuO6
_chemical_formula_sum              "Re2 Ru1 O6"
_cell_length_a       5.233324056383242
_cell_length_b       5.233324777027982
_cell_length_c       5.233326992185839
_cell_angle_alpha    60.000024771225405
_cell_angle_beta     60.000019212318165
_cell_angle_gamma    60.000008051356254

_space_group_name_H-M_alt    "P 1"
_space_group_IT_number       1

loop_
  _space_group_symop_operation_xyz
  'x, y, z'

loop_
  _atom_site_type_symbol
  _atom_site_label
  _atom_site_symmetry_multiplicity
  _atom_site_fract_x
  _atom_site_fract_y
  _atom_site_fract_z
  _atom_site_occupancy
  Re  Re1       1.0  0.24995895287994502  0.25000003641157925  0.25000968062985196  1.0000
  Re  Re2       1.0  0.7499793606023716  0.7500035587919496  0.7499617578623592  1.0000
  Ru  Ru1       1.0  0.999998892769482  0.9999999789372711  0.9999994482213823  1.0000
  O   O1        1.0  0.2544263043073548  0.25440231905978  0.7455914911277953  1.0000
  O   O2        1.0  0.7455897501061616  0.7455858817968426  0.2544303646346703  1.0000
  O   O3        1.0  0.7456063619592126  0.25440667081782703  0.25442073989198344  1.0000
  O   O4        1.0  0.2544305356833389  0.745584591123025  0.7455897770972361  1.0000
  O   O5        1.0  0.25440516327664986  0.7455895260827303  0.2544246395189581  1.0000
  O   O6        1.0  0.7456046003341188  0.25442742979205357  0.7455722223423168  1.0000
