data_image0
_chemical_formula_structural       Re2RhSe6
_chemical_formula_sum              "Re2 Rh1 Se6"
_cell_length_a       5.883570823990708
_cell_length_b       5.883571301855213
_cell_length_c       5.883571441433369
_cell_angle_alpha    60.0000038358742
_cell_angle_beta     59.99999977412524
_cell_angle_gamma    59.99999967416626

_space_group_name_H-M_alt    "P 1"
_space_group_IT_number       1

loop_
  _space_group_symop_operation_xyz
  'x, y, z'

loop_
  _atom_site_type_symbol
  _atom_site_label
  _atom_site_symmetry_multiplicity
  _atom_site_fract_x
  _atom_site_fract_y
  _atom_site_fract_z
  _atom_site_occupancy
  Re  Re1       1.0  0.2499976749622128  0.24999965787922662  0.2500011630580994  1.0000
  Re  Re2       1.0  0.7499985815414105  0.7499999728222738  0.7500000973783754  1.0000
  Rh  Rh1       1.0  3.087992391973542e-07  3.330615308395571e-08  0.9999999479226674  1.0000
  Se  Se1       1.0  0.2806152891776558  0.28061429998048326  0.719385141976202  1.0000
  Se  Se2       1.0  0.7193854877296775  0.7193855409660235  0.28061496328535657  1.0000
  Se  Se3       1.0  0.7193862469147304  0.28061497295370863  0.28061426441413684  1.0000
  Se  Se4       1.0  0.2806151307337369  0.7193853384422932  0.7193852763581234  1.0000
  Se  Se5       1.0  0.28061501755703155  0.7193854936161673  0.28061450774521823  1.0000
  Se  Se6       1.0  0.7193862583364042  0.28061469912662007  0.719384619739597  1.0000
