data_image0
_chemical_formula_structural       Re2RhS6
_chemical_formula_sum              "Re2 Rh1 S6"
_cell_length_a       5.689323269379567
_cell_length_b       5.68932307408279
_cell_length_c       5.689323157171324
_cell_angle_alpha    59.999997399233706
_cell_angle_beta     59.99999774060957
_cell_angle_gamma    59.999998775082084

_space_group_name_H-M_alt    "P 1"
_space_group_IT_number       1

loop_
  _space_group_symop_operation_xyz
  'x, y, z'

loop_
  _atom_site_type_symbol
  _atom_site_label
  _atom_site_symmetry_multiplicity
  _atom_site_fract_x
  _atom_site_fract_y
  _atom_site_fract_z
  _atom_site_occupancy
  Re  Re1       1.0  0.2500001023848098  0.25000011736996763  0.24999975783116965  1.0000
  Re  Re2       1.0  0.7499999740623257  0.7499999387900301  0.7500003251633447  1.0000
  Rh  Rh1       1.0  0.9999999696581092  3.013790544811664e-08  5.1074664309008714e-08  1.0000
  S   S1        1.0  0.27333600160086136  0.2733359846778061  0.7266639600570562  1.0000
  S   S2        1.0  0.7266639577877645  0.7266639659995221  0.2733358897031002  1.0000
  S   S3        1.0  0.7266639571130078  0.2733360165457255  0.2733360203876484  1.0000
  S   S4        1.0  0.2733360358571254  0.7266638760084951  0.7266640508070291  1.0000
  S   S5        1.0  0.2733361216094038  0.7266640239819676  0.27333592308067106  1.0000
  S   S6        1.0  0.7266638716455828  0.2733359955820021  0.7266640528284933  1.0000
