data_image0
_chemical_formula_structural       Re2RuS6
_chemical_formula_sum              "Re2 Ru1 S6"
_cell_length_a       5.659328814600276
_cell_length_b       5.659328771329093
_cell_length_c       5.659328813717112
_cell_angle_alpha    59.99999882962417
_cell_angle_beta     59.99999778923139
_cell_angle_gamma    59.999998455661036

_space_group_name_H-M_alt    "P 1"
_space_group_IT_number       1

loop_
  _space_group_symop_operation_xyz
  'x, y, z'

loop_
  _atom_site_type_symbol
  _atom_site_label
  _atom_site_symmetry_multiplicity
  _atom_site_fract_x
  _atom_site_fract_y
  _atom_site_fract_z
  _atom_site_occupancy
  Re  Re1       1.0  0.25000014217978683  0.25000006845292994  0.25000007307622474  1.0000
  Re  Re2       1.0  0.7499998820986802  0.7500000452141455  0.7499999088986007  1.0000
  Ru  Ru1       1.0  0.9999999217878386  0.9999999285841437  4.4775112818816756e-08  1.0000
  S   S1        1.0  0.2735420518969036  0.2735419105979775  0.7264580540153185  1.0000
  S   S2        1.0  0.7264579630286031  0.7264579801650604  0.2735420334860438  1.0000
  S   S3        1.0  0.7264579079115017  0.2735419974155406  0.27354202103206365  1.0000
  S   S4        1.0  0.2735420706377942  0.7264579106604325  0.7264579911852255  1.0000
  S   S5        1.0  0.273542046202857  0.7264579592155577  0.273542040792073  1.0000
  S   S6        1.0  0.7264580505592646  0.27354216960033556  0.726457883230563  1.0000
