data_image0
_chemical_formula_structural       Re2RuSe6
_chemical_formula_sum              "Re2 Ru1 Se6"
_cell_length_a       5.730689392800723
_cell_length_b       5.7306912330504
_cell_length_c       5.730681922955305
_cell_angle_alpha    59.99999457069532
_cell_angle_beta     59.999987291804956
_cell_angle_gamma    60.000022829790055

_space_group_name_H-M_alt    "P 1"
_space_group_IT_number       1

loop_
  _space_group_symop_operation_xyz
  'x, y, z'

loop_
  _atom_site_type_symbol
  _atom_site_label
  _atom_site_symmetry_multiplicity
  _atom_site_fract_x
  _atom_site_fract_y
  _atom_site_fract_z
  _atom_site_occupancy
  Re  Re1       1.0  0.24999631599508818  0.25000733659942354  0.2499986192666938  1.0000
  Re  Re2       1.0  0.7499930807432572  0.7500016746477152  0.750007644428987  1.0000
  Ru  Ru1       1.0  9.292369766870015e-06  0.9999935457584791  0.9999934960251597  1.0000
  Se  Se1       1.0  0.2805065338126908  0.2805065416336352  0.7194936280476691  1.0000
  Se  Se2       1.0  0.7194950280134899  0.7194910785162545  0.2805055391544882  1.0000
  Se  Se3       1.0  0.7194925019012473  0.28050845283835685  0.28050589720529007  1.0000
  Se  Se4       1.0  0.28050685591941416  0.7194918622781152  0.719495696100386  1.0000
  Se  Se5       1.0  0.28050932475403395  0.7194927587134985  0.28050393971315063  1.0000
  Se  Se6       1.0  0.7194910669282436  0.28050680625831625  0.7194955206969006  1.0000
