data_image0
_chemical_formula_structural       Re2SiO6
_chemical_formula_sum              "Re2 Si1 O6"
_cell_length_a       4.850175293093701
_cell_length_b       4.850174741835649
_cell_length_c       4.850174860635847
_cell_angle_alpha    60.00000228267438
_cell_angle_beta     60.00000133392429
_cell_angle_gamma    60.000001633108795

_space_group_name_H-M_alt    "P 1"
_space_group_IT_number       1

loop_
  _space_group_symop_operation_xyz
  'x, y, z'

loop_
  _atom_site_type_symbol
  _atom_site_label
  _atom_site_symmetry_multiplicity
  _atom_site_fract_x
  _atom_site_fract_y
  _atom_site_fract_z
  _atom_site_occupancy
  Re  Re1       1.0  0.25000192667100274  0.24999900112475318  0.24999959655767842  1.0000
  Re  Re2       1.0  0.7499994768568448  0.7499993214674281  0.7500006007679062  1.0000
  Si  Si1       1.0  3.501379329968497e-08  0.9999999949496894  3.5742901449808005e-09  1.0000
  O   O1        1.0  0.24985470427582052  0.2498550676039021  0.7501450548652622  1.0000
  O   O2        1.0  0.7501446406660105  0.7501455882324907  0.24985489585689383  1.0000
  O   O3        1.0  0.7501444709735068  0.2498551831278919  0.24985461704800144  1.0000
  O   O4        1.0  0.2498551045659574  0.750145323724279  0.7501449114378956  1.0000
  O   O5        1.0  0.24985510103305725  0.7501454016098865  0.24985458994756882  1.0000
  O   O6        1.0  0.7501445651189128  0.24985509766684705  0.7501455980254467  1.0000
