data_image0
_chemical_formula_structural       Re2SiSe6
_chemical_formula_sum              "Re2 Si1 Se6"
_cell_length_a       5.63900541709866
_cell_length_b       5.639004440657847
_cell_length_c       5.639004030124548
_cell_angle_alpha    60.00000216992153
_cell_angle_beta     60.000005853561
_cell_angle_gamma    60.00000249801288

_space_group_name_H-M_alt    "P 1"
_space_group_IT_number       1

loop_
  _space_group_symop_operation_xyz
  'x, y, z'

loop_
  _atom_site_type_symbol
  _atom_site_label
  _atom_site_symmetry_multiplicity
  _atom_site_fract_x
  _atom_site_fract_y
  _atom_site_fract_z
  _atom_site_occupancy
  Re  Re1       1.0  0.2500000232121243  0.24999912602836302  0.2499999887915318  1.0000
  Re  Re2       1.0  0.7499980695230116  0.7500000734337957  0.7500001436723421  1.0000
  Si  Si1       1.0  1.1276550473128487e-07  1.7158142994385948e-07  0.9999992885770702  1.0000
  Se  Se1       1.0  0.27505782971449744  0.2750576724109364  0.7249425220923816  1.0000
  Se  Se2       1.0  0.7249427946473637  0.7249424588036452  0.2750576697783055  1.0000
  Se  Se3       1.0  0.7249427968440227  0.2750575966954555  0.2750575232340999  1.0000
  Se  Se4       1.0  0.27505804629197095  0.724942480221214  0.7249426236390921  1.0000
  Se  Se5       1.0  0.2750578122337891  0.7249427772806942  0.2750575900268294  1.0000
  Se  Se6       1.0  0.7249425564703162  0.27505766017415023  0.7249426262067667  1.0000
