data_image0
_chemical_formula_structural       Re2SiTe6
_chemical_formula_sum              "Re2 Si1 Te6"
_cell_length_a       6.952433352544751
_cell_length_b       6.9524332490619
_cell_length_c       6.952433250115951
_cell_angle_alpha    60.00000007902524
_cell_angle_beta     60.00000050254429
_cell_angle_gamma    59.999999384123164

_space_group_name_H-M_alt    "P 1"
_space_group_IT_number       1

loop_
  _space_group_symop_operation_xyz
  'x, y, z'

loop_
  _atom_site_type_symbol
  _atom_site_label
  _atom_site_symmetry_multiplicity
  _atom_site_fract_x
  _atom_site_fract_y
  _atom_site_fract_z
  _atom_site_occupancy
  Re  Re1       1.0  0.2500000620374153  0.24999985823908383  0.25000011986905635  1.0000
  Re  Re2       1.0  0.7500001183276894  0.750000052112502  0.7499998024072131  1.0000
  Si  Si1       1.0  1.4058276963663737e-08  1.7616060863869983e-08  2.4436500752078034e-08  1.0000
  Te  Te1       1.0  0.25657555659194875  0.25657556248745905  0.7434244348826464  1.0000
  Te  Te2       1.0  0.7434243672611984  0.7434244447524634  0.2565756909031331  1.0000
  Te  Te3       1.0  0.7434244457368313  0.2565755031774536  0.25657557866139835  1.0000
  Te  Te4       1.0  0.2565755041028435  0.7434245058240746  0.7434243735939813  1.0000
  Te  Te5       1.0  0.2565755232490552  0.743424463109646  0.256575527110583  1.0000
  Te  Te6       1.0  0.7434244141586288  0.25657558817042847  0.7434244533718789  1.0000
