data_image0
_chemical_formula_structural       Re2SeS6
_chemical_formula_sum              "Re2 Se1 S6"
_cell_length_a       3.2476911266906674
_cell_length_b       6.120672916924257
_cell_length_c       3.2761563041821606
_cell_angle_alpha    70.08740415903603
_cell_angle_beta     55.7106752376249
_cell_angle_gamma    104.42919331837457

_space_group_name_H-M_alt    "P 1"
_space_group_IT_number       1

loop_
  _space_group_symop_operation_xyz
  'x, y, z'

loop_
  _atom_site_type_symbol
  _atom_site_label
  _atom_site_symmetry_multiplicity
  _atom_site_fract_x
  _atom_site_fract_y
  _atom_site_fract_z
  _atom_site_occupancy
  Re  Re1       1.0  0.7459427414635771  0.18288682225703662  0.8237912920207509  1.0000
  Re  Re2       1.0  0.6286094871774893  0.8937467241222373  0.5661722545741357  1.0000
  Se  Se1       1.0  0.5063200205952212  0.2492164755601707  0.32980845249826163  1.0000
  S   S1        1.0  0.8872588153886766  0.2372910577721238  0.6279798774756299  1.0000
  S   S2        1.0  0.03882542436213884  0.03244730159107556  0.9147943741829496  1.0000
  S   S3        1.0  0.21489278147165075  0.44391735926150977  0.8639885290785015  1.0000
  S   S4        1.0  0.7234357177551163  0.20251746761946832  0.7946177962995302  1.0000
  S   S5        1.0  0.6327376028815459  0.8882535283027515  0.5580707100846574  1.0000
  S   S6        1.0  0.6613897917600183  0.5011514610305327  0.3881405848101912  1.0000
