data_image0
_chemical_formula_structural       Re2SiS6
_chemical_formula_sum              "Re2 Si1 S6"
_cell_length_a       5.586311433448094
_cell_length_b       5.586311449114136
_cell_length_c       5.586311516798352
_cell_angle_alpha    60.000000167234234
_cell_angle_beta     59.999999787674284
_cell_angle_gamma    60.00000084071548

_space_group_name_H-M_alt    "P 1"
_space_group_IT_number       1

loop_
  _space_group_symop_operation_xyz
  'x, y, z'

loop_
  _atom_site_type_symbol
  _atom_site_label
  _atom_site_symmetry_multiplicity
  _atom_site_fract_x
  _atom_site_fract_y
  _atom_site_fract_z
  _atom_site_occupancy
  Re  Re1       1.0  0.25000005005005965  0.25000003864668624  0.24999988951936034  1.0000
  Re  Re2       1.0  0.7500000574927094  0.749999916431342  0.7499999560582775  1.0000
  Si  Si1       1.0  3.004520759335236e-08  0.9999999780759654  0.9999999762484243  1.0000
  S   S1        1.0  0.26682330907107066  0.2668233859837756  0.7331766869798861  1.0000
  S   S2        1.0  0.7331766755145616  0.7331766217119358  0.26682335308548244  1.0000
  S   S3        1.0  0.7331765929447529  0.2668233645580532  0.2668233915928398  1.0000
  S   S4        1.0  0.26682334203245134  0.7331766431376578  0.7331766840172824  1.0000
  S   S5        1.0  0.2668233185586636  0.7331766537846787  0.26682339771399  1.0000
  S   S6        1.0  0.733176626377473  0.26682337364266384  0.7331766648409402  1.0000
