data_image0
_chemical_formula_structural       Re2SO6
_chemical_formula_sum              "Re2 S1 O6"
_cell_length_a       4.781313287551788
_cell_length_b       4.781314285135867
_cell_length_c       4.781313614554899
_cell_angle_alpha    59.99999217415598
_cell_angle_beta     59.99999678044018
_cell_angle_gamma    59.99998925598796

_space_group_name_H-M_alt    "P 1"
_space_group_IT_number       1

loop_
  _space_group_symop_operation_xyz
  'x, y, z'

loop_
  _atom_site_type_symbol
  _atom_site_label
  _atom_site_symmetry_multiplicity
  _atom_site_fract_x
  _atom_site_fract_y
  _atom_site_fract_z
  _atom_site_occupancy
  Re  Re1       1.0  0.24999858605963698  0.2500004572274666  0.2500001879483974  1.0000
  Re  Re2       1.0  0.7499987534882  0.7500004495334902  0.7499998535352366  1.0000
  S   S1        1.0  4.1082697204992895e-07  0.9999997745858472  6.20627912322265e-08  1.0000
  O   O1        1.0  0.24169708581499458  0.24169634185196187  0.7583032397813925  1.0000
  O   O2        1.0  0.7583031701038617  0.7583035607911834  0.24169727614491276  1.0000
  O   O3        1.0  0.7583042044763864  0.24169654063659504  0.24169620725154523  1.0000
  O   O4        1.0  0.24169685179197675  0.7583033953063157  0.7583035593055196  1.0000
  O   O5        1.0  0.2416970382154099  0.7583036841688384  0.2416960147331269  1.0000
  O   O6        1.0  0.7583037180580736  0.24169594182974494  0.7583040003237358  1.0000
