data_image0
_chemical_formula_structural       Re2SeO6
_chemical_formula_sum              "Re2 Se1 O6"
_cell_length_a       5.001438936266996
_cell_length_b       5.0014390750279185
_cell_length_c       5.001438783427847
_cell_angle_alpha    59.999996799077486
_cell_angle_beta     59.999995579190205
_cell_angle_gamma    59.99999963329486

_space_group_name_H-M_alt    "P 1"
_space_group_IT_number       1

loop_
  _space_group_symop_operation_xyz
  'x, y, z'

loop_
  _atom_site_type_symbol
  _atom_site_label
  _atom_site_symmetry_multiplicity
  _atom_site_fract_x
  _atom_site_fract_y
  _atom_site_fract_z
  _atom_site_occupancy
  Re  Re1       1.0  0.25000046960147837  0.24999961224463615  0.2499988290993733  1.0000
  Re  Re2       1.0  0.7500010628301627  0.7499982539229468  0.750000300727066  1.0000
  Se  Se1       1.0  0.999999878637203  1.493758837297687e-07  0.99999996200036  1.0000
  O   O1        1.0  0.24801900325346646  0.2480196380826961  0.7519804009246622  1.0000
  O   O2        1.0  0.7519801380216339  0.7519812596806041  0.2480202681470959  1.0000
  O   O3        1.0  0.7519808907466697  0.24802055000626683  0.2480184236184778  1.0000
  O   O4        1.0  0.2480186286772848  0.7519800098247321  0.7519816395135784  1.0000
  O   O5        1.0  0.2480194826733832  0.7519812776667163  0.2480193328121939  1.0000
  O   O6        1.0  0.751980440103275  0.24801927726670844  0.7519808270071298  1.0000
