data_image0
_chemical_formula_structural       Re2TiO6
_chemical_formula_sum              "Re2 Ti1 O6"
_cell_length_a       4.921814909639987
_cell_length_b       4.921814910146932
_cell_length_c       4.921814396687112
_cell_angle_alpha    60.0000037326036
_cell_angle_beta     60.000003870613874
_cell_angle_gamma    60.00000217706874

_space_group_name_H-M_alt    "P 1"
_space_group_IT_number       1

loop_
  _space_group_symop_operation_xyz
  'x, y, z'

loop_
  _atom_site_type_symbol
  _atom_site_label
  _atom_site_symmetry_multiplicity
  _atom_site_fract_x
  _atom_site_fract_y
  _atom_site_fract_z
  _atom_site_occupancy
  Re  Re1       1.0  0.24999875004325853  0.25000023677183597  0.25000059156296695  1.0000
  Re  Re2       1.0  0.7499995632480277  0.7499997025131618  0.750000447298646  1.0000
  Ti  Ti1       1.0  0.9999999527692186  5.7233219085324905e-08  0.9999999868716969  1.0000
  O   O1        1.0  0.2644151912392184  0.2644146053517371  0.7355848741956156  1.0000
  O   O2        1.0  0.7355851874867444  0.7355852468392233  0.26441474069668  1.0000
  O   O3        1.0  0.7355860136782935  0.2644149814182663  0.2644146410796658  1.0000
  O   O4        1.0  0.2644147910350784  0.7355851693807919  0.735585107267014  1.0000
  O   O5        1.0  0.2644151442517863  0.7355848849520776  0.26441448960987496  1.0000
  O   O6        1.0  0.7355853986960617  0.26441521359056364  0.7355849748534569  1.0000
