data_image0
_chemical_formula_structural       Re2TiSe6
_chemical_formula_sum              "Re2 Ti1 Se6"
_cell_length_a       6.112252342654744
_cell_length_b       6.601476899090406
_cell_length_c       6.261658561689797
_cell_angle_alpha    74.3199793168044
_cell_angle_beta     71.17784090528731
_cell_angle_gamma    57.365860894668515

_space_group_name_H-M_alt    "P 1"
_space_group_IT_number       1

loop_
  _space_group_symop_operation_xyz
  'x, y, z'

loop_
  _atom_site_type_symbol
  _atom_site_label
  _atom_site_symmetry_multiplicity
  _atom_site_fract_x
  _atom_site_fract_y
  _atom_site_fract_z
  _atom_site_occupancy
  Re  Re1       1.0  0.18517094964340036  0.04746432666779084  0.444677783741807  1.0000
  Re  Re2       1.0  0.5718007842815259  0.684086647325015  0.9421614089683525  1.0000
  Ti  Ti1       1.0  0.015294875013491322  0.06351779446249947  0.9622897856721818  1.0000
  Se  Se1       1.0  0.4458494864845112  0.06087813609096497  0.6768680860716587  1.0000
  Se  Se2       1.0  0.6113743276052014  0.9607629941126504  0.14898557228769257  1.0000
  Se  Se3       1.0  0.9738663663318211  0.38258858178734156  0.1317711908854003  1.0000
  Se  Se4       1.0  0.20532415208894675  0.7060864976605424  0.7554008683570022  1.0000
  Se  Se5       1.0  0.2122725797277634  0.7185430597035961  0.26970812516362874  1.0000
  Se  Se6       1.0  0.7790497814216097  0.3760695693998848  0.6681317148126118  1.0000
