data_image0
_chemical_formula_structural       Re2TiTe6
_chemical_formula_sum              "Re2 Ti1 Te6"
_cell_length_a       7.01922452805998
_cell_length_b       7.019224301816691
_cell_length_c       7.019224359983416
_cell_angle_alpha    59.99999957243767
_cell_angle_beta     59.999999883572244
_cell_angle_gamma    60.00000001794148

_space_group_name_H-M_alt    "P 1"
_space_group_IT_number       1

loop_
  _space_group_symop_operation_xyz
  'x, y, z'

loop_
  _atom_site_type_symbol
  _atom_site_label
  _atom_site_symmetry_multiplicity
  _atom_site_fract_x
  _atom_site_fract_y
  _atom_site_fract_z
  _atom_site_occupancy
  Re  Re1       1.0  0.2499999300254611  0.25000001309559955  0.2500001161877078  1.0000
  Re  Re2       1.0  0.7500001232270299  0.7499999084235287  0.7499998499396178  1.0000
  Ti  Ti1       1.0  2.0687180572931884e-08  3.66417163360302e-08  0.9999999713355514  1.0000
  Te  Te1       1.0  0.2633207723664226  0.2633208517311129  0.7366791943881875  1.0000
  Te  Te2       1.0  0.7366791868670306  0.7366791692441016  0.2633209129111566  1.0000
  Te  Te3       1.0  0.7366791931778247  0.263320813662319  0.2633207821210853  1.0000
  Te  Te4       1.0  0.26332077690672706  0.7366791846299282  0.7366792042995569  1.0000
  Te  Te5       1.0  0.2633207940036812  0.7366791611452413  0.2633208420104526  1.0000
  Te  Te6       1.0  0.7366792068379554  0.26332086331966054  0.7366791259179315  1.0000
