data_image0
_chemical_formula_structural       Re2TiS6
_chemical_formula_sum              "Re2 Ti1 S6"
_cell_length_a       5.6577788742470805
_cell_length_b       5.657778741548068
_cell_length_c       5.657778833473862
_cell_angle_alpha    60.00000020468042
_cell_angle_beta     60.00000005066576
_cell_angle_gamma    59.99999974292246

_space_group_name_H-M_alt    "P 1"
_space_group_IT_number       1

loop_
  _space_group_symop_operation_xyz
  'x, y, z'

loop_
  _atom_site_type_symbol
  _atom_site_label
  _atom_site_symmetry_multiplicity
  _atom_site_fract_x
  _atom_site_fract_y
  _atom_site_fract_z
  _atom_site_occupancy
  Re  Re1       1.0  0.2499999827901914  0.24999985983423118  0.2500000343576116  1.0000
  Re  Re2       1.0  0.7499998836732389  0.7499999756445768  0.7500001176333262  1.0000
  Ti  Ti1       1.0  3.417898495411907e-08  6.277658205355167e-08  0.9999999214750896  1.0000
  S   S1        1.0  0.2704058567892921  0.2704058427428565  0.7295941843350261  1.0000
  S   S2        1.0  0.7295941513385062  0.7295941983833765  0.270405824047143  1.0000
  S   S3        1.0  0.7295941911097819  0.27040584075283475  0.2704058113406988  1.0000
  S   S4        1.0  0.27040582349090403  0.7295942176910762  0.7295941904486218  1.0000
  S   S5        1.0  0.2704058763258238  0.7295941658784885  0.270405763442381  1.0000
  S   S6        1.0  0.7295942054197009  0.2704058319535492  0.7295941555439435  1.0000
