data_image0
_chemical_formula_structural       Re2VTe6
_chemical_formula_sum              "Re2 V1 Te6"
_cell_length_a       6.8598334832928
_cell_length_b       6.8598336530867385
_cell_length_c       6.85983343069505
_cell_angle_alpha    60.000000463556475
_cell_angle_beta     59.99999905266336
_cell_angle_gamma    60.0000014540813

_space_group_name_H-M_alt    "P 1"
_space_group_IT_number       1

loop_
  _space_group_symop_operation_xyz
  'x, y, z'

loop_
  _atom_site_type_symbol
  _atom_site_label
  _atom_site_symmetry_multiplicity
  _atom_site_fract_x
  _atom_site_fract_y
  _atom_site_fract_z
  _atom_site_occupancy
  Re  Re1       1.0  0.25000013183193787  0.25000012130295657  0.2499999406638419  1.0000
  Re  Re2       1.0  0.7499999765523372  0.7500000300417482  0.7500004433007356  1.0000
  V   V1        1.0  2.8224809400705137e-08  0.999999991073072  1.9506285959275213e-08  1.0000
  Te  Te1       1.0  0.26219539150125803  0.26219531654485057  0.737804635000537  1.0000
  Te  Te2       1.0  0.7378045436105196  0.7378046526905179  0.2621952648313097  1.0000
  Te  Te3       1.0  0.7378045576578391  0.2621955115921073  0.26219527938812265  1.0000
  Te  Te4       1.0  0.26219527949998467  0.7378045040632868  0.7378046155977005  1.0000
  Te  Te5       1.0  0.2621955129052569  0.7378045230415338  0.2621952456885694  1.0000
  Te  Te6       1.0  0.7378045709826515  0.2621953533537827  0.7378045562026925  1.0000
