data_image0
_chemical_formula_structural       Re2VO6
_chemical_formula_sum              "Re2 V1 O6"
_cell_length_a       4.957473329656731
_cell_length_b       4.957473957655723
_cell_length_c       4.957474390739262
_cell_angle_alpha    60.00001351159876
_cell_angle_beta     60.00001030904196
_cell_angle_gamma    60.00000678264612

_space_group_name_H-M_alt    "P 1"
_space_group_IT_number       1

loop_
  _space_group_symop_operation_xyz
  'x, y, z'

loop_
  _atom_site_type_symbol
  _atom_site_label
  _atom_site_symmetry_multiplicity
  _atom_site_fract_x
  _atom_site_fract_y
  _atom_site_fract_z
  _atom_site_occupancy
  Re  Re1       1.0  0.2500024271415718  0.24999614659903768  0.24999901087815982  1.0000
  Re  Re2       1.0  0.7500077852895343  0.7499937760793081  0.7499851301653244  1.0000
  V   V1        1.0  5.985227575828218e-07  0.9999994342550149  0.9999990698393822  1.0000
  O   O1        1.0  0.25669727086793404  0.25670364277101065  0.7433011597789978  1.0000
  O   O2        1.0  0.7432975143509087  0.7433015154936969  0.2567062663045013  1.0000
  O   O3        1.0  0.7432988876171398  0.2566988344479406  0.25670358588586206  1.0000
  O   O4        1.0  0.2567009323218305  0.7433007577760948  0.7432998012466382  1.0000
  O   O5        1.0  0.2566955432265809  0.7433006745722478  0.2567056959662344  1.0000
  O   O6        1.0  0.7432990421155534  0.25670515319824155  0.7433003273693689  1.0000
