data_image0
_chemical_formula_structural       Re2VS6
_chemical_formula_sum              "Re2 V1 S6"
_cell_length_a       5.624763270675771
_cell_length_b       5.624763326414915
_cell_length_c       5.624763296512145
_cell_angle_alpha    59.99999872052863
_cell_angle_beta     59.999999955073186
_cell_angle_gamma    59.99999927443059

_space_group_name_H-M_alt    "P 1"
_space_group_IT_number       1

loop_
  _space_group_symop_operation_xyz
  'x, y, z'

loop_
  _atom_site_type_symbol
  _atom_site_label
  _atom_site_symmetry_multiplicity
  _atom_site_fract_x
  _atom_site_fract_y
  _atom_site_fract_z
  _atom_site_occupancy
  Re  Re1       1.0  0.25000010981003085  0.2500000562022963  0.24999988808862378  1.0000
  Re  Re2       1.0  0.7499999790517294  0.7500000619135119  0.7499999461373202  1.0000
  V   V1        1.0  0.9999999828724618  0.9999999651613458  5.0873032787837e-08  1.0000
  S   S1        1.0  0.27064105820060036  0.2706410921642757  0.7293589102348852  1.0000
  S   S2        1.0  0.7293589190403729  0.7293588865969158  0.2706411472606545  1.0000
  S   S3        1.0  0.7293588803392593  0.2706410817167669  0.27064112475198776  1.0000
  S   S4        1.0  0.2706410460562781  0.7293589079315044  0.7293589367220564  1.0000
  S   S5        1.0  0.270641131500334  0.7293589026204428  0.2706410744140544  1.0000
  S   S6        1.0  0.7293588773842831  0.27064106743108574  0.7293589431688536  1.0000
