data_image0
_chemical_formula_structural       Re2VSe6
_chemical_formula_sum              "Re2 V1 Se6"
_cell_length_a       5.962626602793867
_cell_length_b       5.96262645720412
_cell_length_c       5.962626448954765
_cell_angle_alpha    60.00000284284318
_cell_angle_beta     60.00000323020722
_cell_angle_gamma    60.0000011306875

_space_group_name_H-M_alt    "P 1"
_space_group_IT_number       1

loop_
  _space_group_symop_operation_xyz
  'x, y, z'

loop_
  _atom_site_type_symbol
  _atom_site_label
  _atom_site_symmetry_multiplicity
  _atom_site_fract_x
  _atom_site_fract_y
  _atom_site_fract_z
  _atom_site_occupancy
  Re  Re1       1.0  0.25000028896003407  0.24999953002438868  0.25000049029953175  1.0000
  Re  Re2       1.0  0.7500008955484111  0.75000023535582  0.7499983748515613  1.0000
  V   V1        1.0  4.1295504337460714e-08  0.9999998993522408  0.9999998988612903  1.0000
  Se  Se1       1.0  0.27325869494661803  0.27325920893469957  0.726741120972542  1.0000
  Se  Se2       1.0  0.7267410743968987  0.7267409384962105  0.2732595303103999  1.0000
  Se  Se3       1.0  0.7267407108594766  0.27325858743867365  0.273259445940763  1.0000
  Se  Se4       1.0  0.27325887771910007  0.7267415271276474  0.7267405876440028  1.0000
  Se  Se5       1.0  0.27325833467488664  0.7267411019060065  0.2732595006692669  1.0000
  Se  Se6       1.0  0.7267410778140464  0.27325897157960793  0.7267410473620836  1.0000
