data_image0
_chemical_formula_structural       Rh2CrSe6
_chemical_formula_sum              "Rh2 Cr1 Se6"
_cell_length_a       6.120361733502031
_cell_length_b       6.120361736336659
_cell_length_c       6.120361754962733
_cell_angle_alpha    60.000000658360754
_cell_angle_beta     60.000000692302606
_cell_angle_gamma    60.00000013870649

_space_group_name_H-M_alt    "P 1"
_space_group_IT_number       1

loop_
  _space_group_symop_operation_xyz
  'x, y, z'

loop_
  _atom_site_type_symbol
  _atom_site_label
  _atom_site_symmetry_multiplicity
  _atom_site_fract_x
  _atom_site_fract_y
  _atom_site_fract_z
  _atom_site_occupancy
  Rh  Rh1       1.0  0.250000201623459  0.24999977881072652  0.24999989878336826  1.0000
  Rh  Rh2       1.0  0.7499995323089427  0.7499998146948063  0.7500008692647313  1.0000
  Cr  Cr1       1.0  1.9190239273437844e-08  1.6008790544158358e-08  0.9999999922038274  1.0000
  Se  Se1       1.0  0.2744085643228857  0.27440831442434394  0.7255915663336978  1.0000
  Se  Se2       1.0  0.7255914819862335  0.7255917173218257  0.27440818101904146  1.0000
  Se  Se3       1.0  0.7255915661627029  0.2744086937785747  0.2744081348543832  1.0000
  Se  Se4       1.0  0.27440847593159545  0.7255915260708844  0.7255915940791885  1.0000
  Se  Se5       1.0  0.27440867873339514  0.7255917216754946  0.2744081347098856  1.0000
  Se  Se6       1.0  0.7255914839367811  0.27440840812451733  0.7255916328788523  1.0000
