data_image0
_chemical_formula_structural       Rh2CoSe6
_chemical_formula_sum              "Rh2 Co1 Se6"
_cell_length_a       6.14149901898049
_cell_length_b       6.141499053978259
_cell_length_c       6.141499018645314
_cell_angle_alpha    60.000000690877656
_cell_angle_beta     60.00000090590481
_cell_angle_gamma    60.00000055642533

_space_group_name_H-M_alt    "P 1"
_space_group_IT_number       1

loop_
  _space_group_symop_operation_xyz
  'x, y, z'

loop_
  _atom_site_type_symbol
  _atom_site_label
  _atom_site_symmetry_multiplicity
  _atom_site_fract_x
  _atom_site_fract_y
  _atom_site_fract_z
  _atom_site_occupancy
  Rh  Rh1       1.0  0.2499995011616219  0.2500006683042516  0.24999945071866878  1.0000
  Rh  Rh2       1.0  0.7500005405605131  0.7499993625823932  0.7499997896854458  1.0000
  Co  Co1       1.0  0.9999999936947807  1.994211612270651e-09  8.66857170701819e-09  1.0000
  Se  Se1       1.0  0.2722788054371848  0.27227948287029297  0.7277212546261601  1.0000
  Se  Se2       1.0  0.7277212626659165  0.7277204463115636  0.2722794725974687  1.0000
  Se  Se3       1.0  0.727720930734013  0.2722793425844094  0.2722789604250824  1.0000
  Se  Se4       1.0  0.27227903200516607  0.7277205247768861  0.7277210737074422  1.0000
  Se  Se5       1.0  0.2722790263706025  0.7277208168975292  0.2722792538463424  1.0000
  Se  Se6       1.0  0.7277209164035362  0.27227934161865947  0.7277207261046054  1.0000
