data_image0
_chemical_formula_structural       Rh2CrS6
_chemical_formula_sum              "Rh2 Cr1 S6"
_cell_length_a       5.753304551725052
_cell_length_b       5.75330522885945
_cell_length_c       5.753305235835096
_cell_angle_alpha    60.00000005564414
_cell_angle_beta     59.99999627280283
_cell_angle_gamma    59.99999587562921

_space_group_name_H-M_alt    "P 1"
_space_group_IT_number       1

loop_
  _space_group_symop_operation_xyz
  'x, y, z'

loop_
  _atom_site_type_symbol
  _atom_site_label
  _atom_site_symmetry_multiplicity
  _atom_site_fract_x
  _atom_site_fract_y
  _atom_site_fract_z
  _atom_site_occupancy
  Rh  Rh1       1.0  0.2499994693083766  0.2500000524681147  0.2500002574255721  1.0000
  Rh  Rh2       1.0  0.7500000234419877  0.7499997784836429  0.7499993335806591  1.0000
  Cr  Cr1       1.0  7.423890785898978e-08  3.618904151778404e-08  0.9999999673817326  1.0000
  S   S1        1.0  0.2657260874011982  0.2657261485213995  0.7342737947243569  1.0000
  S   S2        1.0  0.7342740337277316  0.7342737782248532  0.2657264075488817  1.0000
  S   S3        1.0  0.7342740927145125  0.26572605123415605  0.26572617530532056  1.0000
  S   S4        1.0  0.26572618672204035  0.7342740990326657  0.7342739246985197  1.0000
  S   S5        1.0  0.26572588709791745  0.734273905171382  0.2657262673235089  1.0000
  S   S6        1.0  0.7342741487203612  0.2657261450433861  0.73427387937004  1.0000
