data_image0
_chemical_formula_structural       Rh2CrO6
_chemical_formula_sum              "Rh2 Cr1 O6"
_cell_length_a       6.067744693521653
_cell_length_b       3.7618868151952163
_cell_length_c       1.6674819185012435
_cell_angle_alpha    119.9560998369798
_cell_angle_beta     60.8880216280812
_cell_angle_gamma    104.87404922110305

_space_group_name_H-M_alt    "P 1"
_space_group_IT_number       1

loop_
  _space_group_symop_operation_xyz
  'x, y, z'

loop_
  _atom_site_type_symbol
  _atom_site_label
  _atom_site_symmetry_multiplicity
  _atom_site_fract_x
  _atom_site_fract_y
  _atom_site_fract_z
  _atom_site_occupancy
  Rh  Rh1       1.0  0.9607786024748359  0.22949821041027757  0.6957783810561174  1.0000
  Rh  Rh2       1.0  0.8247728684050742  0.15417579599954434  0.22292322555640554  1.0000
  Cr  Cr1       1.0  0.6581101254592441  0.2702903798909161  0.2993526315172334  1.0000
  O   O1        1.0  0.3266380637482712  0.8960030796349974  0.8088833940023046  1.0000
  O   O2        1.0  0.36239173667722513  0.028111060508252184  0.35001740250208985  1.0000
  O   O3        1.0  0.5712937687342169  0.25955012546185674  0.3572068591065556  1.0000
  O   O4        1.0  0.4890639790057456  0.7120481800364522  0.27075755224087794  1.0000
  O   O5        1.0  0.08215756927136893  0.9822276372909869  0.19920140908712006  1.0000
  O   O6        1.0  0.6962568235450627  0.22022758315190116  0.6215652462424387  1.0000
