data_image0
_chemical_formula_structural       Rh2CS6
_chemical_formula_sum              "Rh2 C1 S6"
_cell_length_a       5.573368385027935
_cell_length_b       5.5733680348428205
_cell_length_c       5.5733680068254765
_cell_angle_alpha    60.000000815661345
_cell_angle_beta     60.00000124344527
_cell_angle_gamma    60.00000015474021

_space_group_name_H-M_alt    "P 1"
_space_group_IT_number       1

loop_
  _space_group_symop_operation_xyz
  'x, y, z'

loop_
  _atom_site_type_symbol
  _atom_site_label
  _atom_site_symmetry_multiplicity
  _atom_site_fract_x
  _atom_site_fract_y
  _atom_site_fract_z
  _atom_site_occupancy
  Rh  Rh1       1.0  0.2500005023765459  0.2499988868277384  0.25000038127320506  1.0000
  Rh  Rh2       1.0  0.7499997038309317  0.7500003984222734  0.7499987105995  1.0000
  C   C1        1.0  1.872860883789081e-07  0.9999996308208255  0.9999994916679715  1.0000
  S   S1        1.0  0.2508248423376552  0.25082430011532  0.7491753515233299  1.0000
  S   S2        1.0  0.7491750384717308  0.7491760421298318  0.2508252854241378  1.0000
  S   S3        1.0  0.7491750975899418  0.25082407426669434  0.25082530848717943  1.0000
  S   S4        1.0  0.25082468395884444  0.7491763668657317  0.7491751115430398  1.0000
  S   S5        1.0  0.2508243645687781  0.7491757613954078  0.2508247246127547  1.0000
  S   S6        1.0  0.7491755940289722  0.2508245215173752  0.7491756393523745  1.0000
