data_image0
_chemical_formula_structural       Rh2FeSe6
_chemical_formula_sum              "Rh2 Fe1 Se6"
_cell_length_a       6.067079319270808
_cell_length_b       6.067080265012204
_cell_length_c       6.067079544347367
_cell_angle_alpha    59.99999091344503
_cell_angle_beta     59.99998025006043
_cell_angle_gamma    59.999993288030566

_space_group_name_H-M_alt    "P 1"
_space_group_IT_number       1

loop_
  _space_group_symop_operation_xyz
  'x, y, z'

loop_
  _atom_site_type_symbol
  _atom_site_label
  _atom_site_symmetry_multiplicity
  _atom_site_fract_x
  _atom_site_fract_y
  _atom_site_fract_z
  _atom_site_occupancy
  Rh  Rh1       1.0  0.2499963109594845  0.2499991852143625  0.25000700482643073  1.0000
  Rh  Rh2       1.0  0.7500015865283038  0.7500010297798363  0.7499976829416272  1.0000
  Fe  Fe1       1.0  0.9999999659101109  2.9068888970126044e-07  0.9999996706152601  1.0000
  Se  Se1       1.0  0.27078037989782894  0.2707804916437416  0.7292187506706418  1.0000
  Se  Se2       1.0  0.7292200740914578  0.7292190995807512  0.2707822560808088  1.0000
  Se  Se3       1.0  0.7292197836541311  0.2707806189414552  0.27078037029125973  1.0000
  Se  Se4       1.0  0.27078005094557284  0.7292221779355879  0.7292162446382664  1.0000
  Se  Se5       1.0  0.2707797825168327  0.7292179641850427  0.270781295368558  1.0000
  Se  Se6       1.0  0.7292219857570226  0.27077920866975996  0.7292168367356401  1.0000
