data_image0
_chemical_formula_structural       Rh2GeS6
_chemical_formula_sum              "Rh2 Ge1 S6"
_cell_length_a       6.246666682975303
_cell_length_b       6.246668607763657
_cell_length_c       6.246666465181907
_cell_angle_alpha    60.00001831617705
_cell_angle_beta     60.00001041298236
_cell_angle_gamma    60.000015343765064

_space_group_name_H-M_alt    "P 1"
_space_group_IT_number       1

loop_
  _space_group_symop_operation_xyz
  'x, y, z'

loop_
  _atom_site_type_symbol
  _atom_site_label
  _atom_site_symmetry_multiplicity
  _atom_site_fract_x
  _atom_site_fract_y
  _atom_site_fract_z
  _atom_site_occupancy
  Rh  Rh1       1.0  0.2500004257565128  0.2500011898688523  0.24999833716426578  1.0000
  Rh  Rh2       1.0  0.7499953720781348  0.749997871997217  0.750001112252124  1.0000
  Ge  Ge1       1.0  0.9999997914166665  4.901590245035321e-08  0.9999998700718504  1.0000
  S   S1        1.0  0.2624740979866939  0.26247266507860667  0.7375261135455086  1.0000
  S   S2        1.0  0.7375266460318056  0.7375269359625676  0.262473533960282  1.0000
  S   S3        1.0  0.737527158059734  0.2624739961381834  0.2624726132524885  1.0000
  S   S4        1.0  0.26247659802199563  0.7375252696342527  0.7375281803814094  1.0000
  S   S5        1.0  0.2624746752447927  0.7375264741184202  0.26247193509082134  1.0000
  S   S6        1.0  0.7375251845300522  0.2624755855608754  0.73752832436406  1.0000
