data_image0
_chemical_formula_structural       Rh2GeSe6
_chemical_formula_sum              "Rh2 Ge1 Se6"
_cell_length_a       6.309039299243607
_cell_length_b       6.309039425601745
_cell_length_c       6.309039381260023
_cell_angle_alpha    60.00000058644025
_cell_angle_beta     59.999999741963784
_cell_angle_gamma    59.99999974464079

_space_group_name_H-M_alt    "P 1"
_space_group_IT_number       1

loop_
  _space_group_symop_operation_xyz
  'x, y, z'

loop_
  _atom_site_type_symbol
  _atom_site_label
  _atom_site_symmetry_multiplicity
  _atom_site_fract_x
  _atom_site_fract_y
  _atom_site_fract_z
  _atom_site_occupancy
  Rh  Rh1       1.0  0.2500001583198074  0.2499999802625358  0.2499998317459468  1.0000
  Rh  Rh2       1.0  0.7499998018748768  0.7500001096767219  0.7500002228437617  1.0000
  Ge  Ge1       1.0  0.999999983213894  0.9999999844699673  0.9999999876275769  1.0000
  Se  Se1       1.0  0.2850560570639802  0.28505600031540995  0.7149440514949963  1.0000
  Se  Se2       1.0  0.7149439723306721  0.7149439479122979  0.2850559791194634  1.0000
  Se  Se3       1.0  0.7149439369172834  0.2850559799844624  0.2850559750064068  1.0000
  Se  Se4       1.0  0.28505605047400717  0.7149439954208031  0.7149440471706814  1.0000
  Se  Se5       1.0  0.2850560610430614  0.7149440658017057  0.28505582624526965  1.0000
  Se  Se6       1.0  0.7149439721960023  0.28505593678111657  0.7149440833378408  1.0000
