data_image0
_chemical_formula_structural       Rh2MnS6
_chemical_formula_sum              "Rh2 Mn1 S6"
_cell_length_a       6.062016819893656
_cell_length_b       6.06201503004907
_cell_length_c       6.062015862913263
_cell_angle_alpha    59.99999052151528
_cell_angle_beta     60.00000194515129
_cell_angle_gamma    59.99998924560522

_space_group_name_H-M_alt    "P 1"
_space_group_IT_number       1

loop_
  _space_group_symop_operation_xyz
  'x, y, z'

loop_
  _atom_site_type_symbol
  _atom_site_label
  _atom_site_symmetry_multiplicity
  _atom_site_fract_x
  _atom_site_fract_y
  _atom_site_fract_z
  _atom_site_occupancy
  Rh  Rh1       1.0  0.250003746339456  0.24999936033092013  0.24999882187057998  1.0000
  Rh  Rh2       1.0  0.7499978130561424  0.7500012893241522  0.7500006077522351  1.0000
  Mn  Mn1       1.0  0.999999945664984  0.9999999858574778  1.596096075415607e-07  1.0000
  S   S1        1.0  0.25992841827256313  0.2599268967992603  0.7400722747164581  1.0000
  S   S2        1.0  0.7400718786392932  0.7400724658867556  0.2599279396968029  1.0000
  S   S3        1.0  0.7400704703245716  0.2599276670659376  0.25992775834013937  1.0000
  S   S4        1.0  0.25992844969769047  0.7400727462071589  0.74007173173082  1.0000
  S   S5        1.0  0.2599286663102503  0.7400723953694033  0.2599267817696475  1.0000
  S   S6        1.0  0.740070566326245  0.25992724006518114  0.7400738778955143  1.0000
