data_image0
_chemical_formula_structural       Rh2MnO6
_chemical_formula_sum              "Rh2 Mn1 O6"
_cell_length_a       5.071395439122186
_cell_length_b       5.071395299896182
_cell_length_c       5.07139541955348
_cell_angle_alpha    59.99999988574526
_cell_angle_beta     59.99999799158023
_cell_angle_gamma    60.00000066118675

_space_group_name_H-M_alt    "P 1"
_space_group_IT_number       1

loop_
  _space_group_symop_operation_xyz
  'x, y, z'

loop_
  _atom_site_type_symbol
  _atom_site_label
  _atom_site_symmetry_multiplicity
  _atom_site_fract_x
  _atom_site_fract_y
  _atom_site_fract_z
  _atom_site_occupancy
  Rh  Rh1       1.0  0.24999960707751132  0.250000460225059  0.24999951600715464  1.0000
  Rh  Rh2       1.0  0.7500006469868618  0.7499993665604692  0.7500008013706583  1.0000
  Mn  Mn1       1.0  0.9999999815323505  0.9999999734349364  4.769761807154017e-09  1.0000
  O   O1        1.0  0.2507533565503051  0.25075437970662545  0.7492463815702021  1.0000
  O   O2        1.0  0.7492466341051426  0.7492456088842776  0.25075373026968745  1.0000
  O   O3        1.0  0.7492461720551121  0.25075398102315577  0.25075373184725125  1.0000
  O   O4        1.0  0.2507536135658978  0.7492459737576572  0.7492460833558475  1.0000
  O   O5        1.0  0.25075408203271754  0.7492463765200087  0.25075370403425445  1.0000
  O   O6        1.0  0.7492458814341175  0.25075384391144107  0.749246153647691  1.0000
