data_image0
_chemical_formula_structural       Rh2MnSe6
_chemical_formula_sum              "Rh2 Mn1 Se6"
_cell_length_a       6.16626657615677
_cell_length_b       6.166266673792878
_cell_length_c       6.166266618996113
_cell_angle_alpha    60.000000842996855
_cell_angle_beta     60.00000078592415
_cell_angle_gamma    60.00000020578312

_space_group_name_H-M_alt    "P 1"
_space_group_IT_number       1

loop_
  _space_group_symop_operation_xyz
  'x, y, z'

loop_
  _atom_site_type_symbol
  _atom_site_label
  _atom_site_symmetry_multiplicity
  _atom_site_fract_x
  _atom_site_fract_y
  _atom_site_fract_z
  _atom_site_occupancy
  Rh  Rh1       1.0  0.25000052335004286  0.24999985756604068  0.24999982717534874  1.0000
  Rh  Rh2       1.0  0.7499999319455884  0.7499999758970552  0.7500005173843604  1.0000
  Mn  Mn1       1.0  0.9999999874402122  3.972403166289842e-09  0.9999999702374288  1.0000
  Se  Se1       1.0  0.27449652475524444  0.2744965208585821  0.725503491954112  1.0000
  Se  Se2       1.0  0.7255032967416297  0.7255036522449867  0.27449631693774135  1.0000
  Se  Se3       1.0  0.7255033311908481  0.2744966343949138  0.2744964031811819  1.0000
  Se  Se4       1.0  0.27449643889531355  0.7255034850812129  0.7255034809339239  1.0000
  Se  Se5       1.0  0.2744966514450234  0.7255034403087941  0.2744963822930113  1.0000
  Se  Se6       1.0  0.7255033149666121  0.2744964328783355  0.7255036078901977  1.0000
