data_image0
_chemical_formula_structural       Rh2PO6
_chemical_formula_sum              "Rh2 P1 O6"
_cell_length_a       4.918416467782646
_cell_length_b       4.91841202065421
_cell_length_c       4.918410861430624
_cell_angle_alpha    59.999962967782814
_cell_angle_beta     60.000054498484424
_cell_angle_gamma    60.00002544336341

_space_group_name_H-M_alt    "P 1"
_space_group_IT_number       1

loop_
  _space_group_symop_operation_xyz
  'x, y, z'

loop_
  _atom_site_type_symbol
  _atom_site_label
  _atom_site_symmetry_multiplicity
  _atom_site_fract_x
  _atom_site_fract_y
  _atom_site_fract_z
  _atom_site_occupancy
  Rh  Rh1       1.0  0.25002089970000363  0.24998168627946907  0.24999638080971548  1.0000
  Rh  Rh2       1.0  0.7500294878016108  0.7499952148902982  0.7499782220860466  1.0000
  P   P1        1.0  1.3087306627962746e-06  0.9999991234774442  0.9999994219908978  1.0000
  O   O1        1.0  0.2378794414885051  0.2378883350057118  0.7621198773285162  1.0000
  O   O2        1.0  0.7621081133378698  0.7621219113614249  0.23789057569768482  1.0000
  O   O3        1.0  0.7621068072992909  0.23788889552816067  0.23788349919590474  1.0000
  O   O4        1.0  0.2378750844083655  0.7621182954631547  0.7621155396904641  1.0000
  O   O5        1.0  0.23787297334923518  0.7621175940984265  0.23789772090448483  1.0000
  O   O6        1.0  0.7621069676574069  0.237888229804399  0.7621196651939346  1.0000
