data_image0
_chemical_formula_structural       Rh2PS6
_chemical_formula_sum              "Rh2 P1 S6"
_cell_length_a       6.1981517567433375
_cell_length_b       6.198152467602625
_cell_length_c       6.198151879093266
_cell_angle_alpha    60.00000173210516
_cell_angle_beta     59.999999896834254
_cell_angle_gamma    60.000005286407045

_space_group_name_H-M_alt    "P 1"
_space_group_IT_number       1

loop_
  _space_group_symop_operation_xyz
  'x, y, z'

loop_
  _atom_site_type_symbol
  _atom_site_label
  _atom_site_symmetry_multiplicity
  _atom_site_fract_x
  _atom_site_fract_y
  _atom_site_fract_z
  _atom_site_occupancy
  Rh  Rh1       1.0  0.25000046753886507  0.24999988756899083  0.25000036137999976  1.0000
  Rh  Rh2       1.0  0.7499988959583704  0.7500005598035028  0.7500014662141791  1.0000
  P   P1        1.0  0.9999999489279906  7.903933139975574e-09  2.9650958556094314e-08  1.0000
  S   S1        1.0  0.24779314246699716  0.24779308804150785  0.752207335031016  1.0000
  S   S2        1.0  0.7522070282736186  0.7522067428241197  0.2477931968371082  1.0000
  S   S3        1.0  0.7522061639194282  0.2477935240535002  0.2477926324539324  1.0000
  S   S4        1.0  0.2477933043271193  0.7522075200661194  0.7522061452003388  1.0000
  S   S5        1.0  0.2477942311872038  0.7522065866255903  0.24779198746530984  1.0000
  S   S6        1.0  0.7522068446403603  0.2477920882896384  0.75220684025693  1.0000
