data_image0
_chemical_formula_structural       Rh2SO6
_chemical_formula_sum              "Rh2 S1 O6"
_cell_length_a       4.932043666651085
_cell_length_b       4.932043740878823
_cell_length_c       4.932043744429462
_cell_angle_alpha    60.000001283230255
_cell_angle_beta     60.00000096520141
_cell_angle_gamma    60.000001656619396

_space_group_name_H-M_alt    "P 1"
_space_group_IT_number       1

loop_
  _space_group_symop_operation_xyz
  'x, y, z'

loop_
  _atom_site_type_symbol
  _atom_site_label
  _atom_site_symmetry_multiplicity
  _atom_site_fract_x
  _atom_site_fract_y
  _atom_site_fract_z
  _atom_site_occupancy
  Rh  Rh1       1.0  0.24999992578443891  0.2500000086807298  0.24999992405392105  1.0000
  Rh  Rh2       1.0  0.7500000082090101  0.7500001973857571  0.7499999258846185  1.0000
  S   S1        1.0  2.343657855226454e-08  0.9999999577849198  4.588527733055132e-08  1.0000
  O   O1        1.0  0.23084928303612162  0.23084926347183948  0.7691507712734434  1.0000
  O   O2        1.0  0.7691507528634555  0.7691507141365655  0.23084928184250725  1.0000
  O   O3        1.0  0.7691507624096505  0.2308492150244504  0.23084929013318703  1.0000
  O   O4        1.0  0.2308492912986622  0.7691506880867531  0.7691507426656272  1.0000
  O   O5        1.0  0.23084920083532334  0.769150752665921  0.23084927703736724  1.0000
  O   O6        1.0  0.7691507160880268  0.23084920259332156  0.7691507129225122  1.0000
