data_image0
_chemical_formula_structural       Rh2SiSe6
_chemical_formula_sum              "Rh2 Si1 Se6"
_cell_length_a       6.202829541696281
_cell_length_b       6.202829546901394
_cell_length_c       6.202829259684283
_cell_angle_alpha    59.99999916331958
_cell_angle_beta     60.00000058181044
_cell_angle_gamma    59.99999989597656

_space_group_name_H-M_alt    "P 1"
_space_group_IT_number       1

loop_
  _space_group_symop_operation_xyz
  'x, y, z'

loop_
  _atom_site_type_symbol
  _atom_site_label
  _atom_site_symmetry_multiplicity
  _atom_site_fract_x
  _atom_site_fract_y
  _atom_site_fract_z
  _atom_site_occupancy
  Rh  Rh1       1.0  0.25000179010789414  0.24999970309642047  0.24999937617956344  1.0000
  Rh  Rh2       1.0  0.7499997682918863  0.7500014174725194  0.7500017648777038  1.0000
  Si  Si1       1.0  0.999999873300274  5.923483723242391e-09  0.9999999555972316  1.0000
  Se  Se1       1.0  0.28004888251557547  0.28004808591454344  0.7199513250843586  1.0000
  Se  Se2       1.0  0.7199511072034818  0.719951765054934  0.2800473642987673  1.0000
  Se  Se3       1.0  0.7199509747886461  0.2800484751200261  0.28004850710531054  1.0000
  Se  Se4       1.0  0.2800480202677021  0.7199514390332343  0.7199514218577043  1.0000
  Se  Se5       1.0  0.2800489020169359  0.7199514196938401  0.28004812604629986  1.0000
  Se  Se6       1.0  0.7199506968791345  0.2800476770189597  0.7199521515422258  1.0000
