data_image0
_chemical_formula_structural       Rh2SiS6
_chemical_formula_sum              "Rh2 Si1 S6"
_cell_length_a       6.112465248999529
_cell_length_b       6.112456484697534
_cell_length_c       6.1124683906969715
_cell_angle_alpha    59.99992997667591
_cell_angle_beta     59.99998979097082
_cell_angle_gamma    60.00003474994489

_space_group_name_H-M_alt    "P 1"
_space_group_IT_number       1

loop_
  _space_group_symop_operation_xyz
  'x, y, z'

loop_
  _atom_site_type_symbol
  _atom_site_label
  _atom_site_symmetry_multiplicity
  _atom_site_fract_x
  _atom_site_fract_y
  _atom_site_fract_z
  _atom_site_occupancy
  Rh  Rh1       1.0  0.2500940751408039  0.2500688304141693  0.24991962674767224  1.0000
  Rh  Rh2       1.0  0.7500498951881525  0.7498968370377628  0.7499633183362724  1.0000
  Si  Si1       1.0  0.9999945749267832  1.4326311693348911e-06  1.314008567793416e-06  1.0000
  S   S1        1.0  0.25737743692586995  0.25744440957242465  0.7425902634393753  1.0000
  S   S2        1.0  0.7425804941990926  0.7425817209602873  0.2574605221800644  1.0000
  S   S3        1.0  0.7425229879977077  0.2574377473667613  0.25740006042568814  1.0000
  S   S4        1.0  0.2574164370203658  0.7425446787060419  0.7426369189983542  1.0000
  S   S5        1.0  0.2574073692495285  0.7425477474682187  0.2574171213561679  1.0000
  S   S6        1.0  0.7425567488985387  0.25747698249495554  0.7426117306495182  1.0000
