data_image0
_chemical_formula_structural       Rh2VS6
_chemical_formula_sum              "Rh2 V1 S6"
_cell_length_a       5.879807406033646
_cell_length_b       5.879807333190622
_cell_length_c       5.879807312640433
_cell_angle_alpha    59.99999963036544
_cell_angle_beta     59.99999945547056
_cell_angle_gamma    59.9999993910169

_space_group_name_H-M_alt    "P 1"
_space_group_IT_number       1

loop_
  _space_group_symop_operation_xyz
  'x, y, z'

loop_
  _atom_site_type_symbol
  _atom_site_label
  _atom_site_symmetry_multiplicity
  _atom_site_fract_x
  _atom_site_fract_y
  _atom_site_fract_z
  _atom_site_occupancy
  Rh  Rh1       1.0  0.2500000783080654  0.2499997803268299  0.24999972992355082  1.0000
  Rh  Rh2       1.0  0.7499998908432715  0.7500000491895082  0.7499998750819686  1.0000
  V   V1        1.0  3.3694127752915975e-10  1.6663741570846155e-08  3.401805864093203e-08  1.0000
  S   S1        1.0  0.2657069352141888  0.26570689954351784  0.7342931606844252  1.0000
  S   S2        1.0  0.734293036751803  0.7342930570338494  0.26570693042171734  1.0000
  S   S3        1.0  0.7342931381897306  0.26570695544258627  0.2657070095493621  1.0000
  S   S4        1.0  0.26570691318070977  0.7342931281958107  0.7342931483976408  1.0000
  S   S5        1.0  0.26570698693692385  0.7342931872020149  0.2657068642203362  1.0000
  S   S6        1.0  0.7342930566768417  0.26570692559792997  0.734293226899942  1.0000
