data_image0
_chemical_formula_structural       Rh2VO6
_chemical_formula_sum              "Rh2 V1 O6"
_cell_length_a       3.5303732604877482
_cell_length_b       2.727309543181182
_cell_length_c       2.940914644846143
_cell_angle_alpha    74.1659433474819
_cell_angle_beta     81.47963101993591
_cell_angle_gamma    39.13039001927018

_space_group_name_H-M_alt    "P 1"
_space_group_IT_number       1

loop_
  _space_group_symop_operation_xyz
  'x, y, z'

loop_
  _atom_site_type_symbol
  _atom_site_label
  _atom_site_symmetry_multiplicity
  _atom_site_fract_x
  _atom_site_fract_y
  _atom_site_fract_z
  _atom_site_occupancy
  Rh  Rh1       1.0  0.04017810363259309  0.6646174675676335  0.2701742617869798  1.0000
  Rh  Rh2       1.0  0.28258153828147003  0.62082598881976  0.43462048562522626  1.0000
  V   V1        1.0  0.6952245371758057  0.5737836542330365  0.7078409047066808  1.0000
  O   O1        1.0  0.9247551615352119  0.7725997562413373  0.9586602388890559  1.0000
  O   O2        1.0  0.811502610302366  0.30010091174764275  0.7468216450043893  1.0000
  O   O3        1.0  0.7507973087851483  0.4331841998747766  0.498145152074335  1.0000
  O   O4        1.0  0.5579926208331282  0.6409769610529807  0.09075616073231507  1.0000
  O   O5        1.0  0.1499046320044767  0.8729304315509646  0.5097588837919925  1.0000
  O   O6        1.0  0.11059008057054709  0.5823784250171968  0.23858306703215892  1.0000
