data_image0
_chemical_formula_structural       Ru2CO6
_chemical_formula_sum              "Ru2 C1 O6"
_cell_length_a       4.801267987833644
_cell_length_b       4.80126827076707
_cell_length_c       4.801267543106592
_cell_angle_alpha    59.99999923933372
_cell_angle_beta     59.99999788689343
_cell_angle_gamma    59.99999907004271

_space_group_name_H-M_alt    "P 1"
_space_group_IT_number       1

loop_
  _space_group_symop_operation_xyz
  'x, y, z'

loop_
  _atom_site_type_symbol
  _atom_site_label
  _atom_site_symmetry_multiplicity
  _atom_site_fract_x
  _atom_site_fract_y
  _atom_site_fract_z
  _atom_site_occupancy
  Ru  Ru1       1.0  0.24999935851594063  0.2499995046670785  0.2500007056854886  1.0000
  Ru  Ru2       1.0  0.7499998619554815  0.7499993812997157  0.7499998237918234  1.0000
  C   C1        1.0  0.9999997660157738  0.9999997423613467  1.6666569361437692e-07  1.0000
  O   O1        1.0  0.22026839152419977  0.2202687434575645  0.7797315719232515  1.0000
  O   O2        1.0  0.7797318815780191  0.77973169599378  0.22026829599354328  1.0000
  O   O3        1.0  0.7797318215992008  0.22026863662292911  0.22026833253931305  1.0000
  O   O4        1.0  0.22026860114594426  0.7797318589477301  0.7797313346055365  1.0000
  O   O5        1.0  0.220268448543743  0.7797317621811851  0.22026855165491194  1.0000
  O   O6        1.0  0.7797318675815664  0.22026864921050202  0.7797313233596492  1.0000
