data_image0
_chemical_formula_structural       Ru2CrO6
_chemical_formula_sum              "Ru2 Cr1 O6"
_cell_length_a       5.2262504827154235
_cell_length_b       5.2262504426835825
_cell_length_c       5.226250387529085
_cell_angle_alpha    60.000001971204874
_cell_angle_beta     60.00000389456731
_cell_angle_gamma    60.000001561065865

_space_group_name_H-M_alt    "P 1"
_space_group_IT_number       1

loop_
  _space_group_symop_operation_xyz
  'x, y, z'

loop_
  _atom_site_type_symbol
  _atom_site_label
  _atom_site_symmetry_multiplicity
  _atom_site_fract_x
  _atom_site_fract_y
  _atom_site_fract_z
  _atom_site_occupancy
  Ru  Ru1       1.0  0.2500022013211218  0.250000014331324  0.2500006897838019  1.0000
  Ru  Ru2       1.0  0.7500008549338388  0.7499997781842248  0.749993538362161  1.0000
  Cr  Cr1       1.0  0.9999999696691969  8.436414474259447e-08  5.5260290604443776e-08  1.0000
  O   O1        1.0  0.2497463140760064  0.24974789974720443  0.7502526827934801  1.0000
  O   O2        1.0  0.7502527198318183  0.7502526122070537  0.2497494211543852  1.0000
  O   O3        1.0  0.7502515688345847  0.24974577539530893  0.24974893333945464  1.0000
  O   O4        1.0  0.24974829768983722  0.7502535179657495  0.7502524700306515  1.0000
  O   O5        1.0  0.2497458778008591  0.7502522237483382  0.2497486115057785  1.0000
  O   O6        1.0  0.7502521736752302  0.24974809369969533  0.7502536369981335  1.0000
