data_image0
_chemical_formula_structural       Ru2CoSe6
_chemical_formula_sum              "Ru2 Co1 Se6"
_cell_length_a       6.006740739383889
_cell_length_b       6.006740248599518
_cell_length_c       6.006740610937106
_cell_angle_alpha    59.999993042974985
_cell_angle_beta     59.999998839914724
_cell_angle_gamma    60.000001057903255

_space_group_name_H-M_alt    "P 1"
_space_group_IT_number       1

loop_
  _space_group_symop_operation_xyz
  'x, y, z'

loop_
  _atom_site_type_symbol
  _atom_site_label
  _atom_site_symmetry_multiplicity
  _atom_site_fract_x
  _atom_site_fract_y
  _atom_site_fract_z
  _atom_site_occupancy
  Ru  Ru1       1.0  0.2500002270981042  0.24999949725220794  0.24999939982540167  1.0000
  Ru  Ru2       1.0  0.7500004882530685  0.7500002819555404  0.7499997699025472  1.0000
  Co  Co1       1.0  0.9999998501905721  1.6107712107328166e-07  7.094678278193941e-08  1.0000
  Se  Se1       1.0  0.2698953055367375  0.26989526096204136  0.7301049856805487  1.0000
  Se  Se2       1.0  0.7301044440926306  0.7301049586590243  0.2698954472442629  1.0000
  Se  Se3       1.0  0.7301048158534373  0.2698954834341466  0.2698951174990594  1.0000
  Se  Se4       1.0  0.2698951476056664  0.7301045445255497  0.730104949739945  1.0000
  Se  Se5       1.0  0.2698950742848439  0.7301050096152644  0.2698954441731827  1.0000
  Se  Se6       1.0  0.7301046358950878  0.2698947920208482  0.7301047946105605  1.0000
