data_image0
_chemical_formula_structural       Ru2CoO6
_chemical_formula_sum              "Ru2 Co1 O6"
_cell_length_a       5.161305045039229
_cell_length_b       5.161305178351644
_cell_length_c       5.16130511424817
_cell_angle_alpha    60.00000035422734
_cell_angle_beta     60.00000071103083
_cell_angle_gamma    60.00000269695239

_space_group_name_H-M_alt    "P 1"
_space_group_IT_number       1

loop_
  _space_group_symop_operation_xyz
  'x, y, z'

loop_
  _atom_site_type_symbol
  _atom_site_label
  _atom_site_symmetry_multiplicity
  _atom_site_fract_x
  _atom_site_fract_y
  _atom_site_fract_z
  _atom_site_occupancy
  Ru  Ru1       1.0  0.25000029809852525  0.2500006218687484  0.2499994167109284  1.0000
  Ru  Ru2       1.0  0.7499999924387223  0.7499995709767976  0.7499999956255069  1.0000
  Co  Co1       1.0  0.9999999511648788  1.8983489414293713e-08  3.430075993982382e-08  1.0000
  O   O1        1.0  0.2473996467157926  0.2473998217719457  0.7526002786109343  1.0000
  O   O2        1.0  0.7526003864553271  0.7526000625918703  0.24739979058585626  1.0000
  O   O3        1.0  0.7526000664662214  0.2473997821375195  0.24739978332235335  1.0000
  O   O4        1.0  0.24739985342064152  0.7526000595134397  0.7526004394352765  1.0000
  O   O5        1.0  0.24739975495049737  0.7526001023818087  0.24739977433354557  1.0000
  O   O6        1.0  0.7526000241228588  0.24739996707103423  0.7526004863046611  1.0000
