data_image0
_chemical_formula_structural       Ru2CoS6
_chemical_formula_sum              "Ru2 Co1 S6"
_cell_length_a       5.47321551115788
_cell_length_b       5.473215802329054
_cell_length_c       5.473215266791371
_cell_angle_alpha    60.000001775210016
_cell_angle_beta     60.00000013153241
_cell_angle_gamma    59.999998462006445

_space_group_name_H-M_alt    "P 1"
_space_group_IT_number       1

loop_
  _space_group_symop_operation_xyz
  'x, y, z'

loop_
  _atom_site_type_symbol
  _atom_site_label
  _atom_site_symmetry_multiplicity
  _atom_site_fract_x
  _atom_site_fract_y
  _atom_site_fract_z
  _atom_site_occupancy
  Ru  Ru1       1.0  0.25000020855663246  0.24999996401687422  0.24999997173724223  1.0000
  Ru  Ru2       1.0  0.7499999234736777  0.7499997264603931  0.7500005610461945  1.0000
  Co  Co1       1.0  2.5422776792963857e-08  3.1327886095308655e-08  0.9999998619998915  1.0000
  S   S1        1.0  0.2683049878403753  0.2683049486642596  0.7316950211610035  1.0000
  S   S2        1.0  0.7316949743181054  0.7316951311738873  0.2683048245207498  1.0000
  S   S3        1.0  0.7316950784221727  0.2683050524442464  0.26830468928280465  1.0000
  S   S4        1.0  0.26830479521172024  0.7316950967627939  0.7316951604955573  1.0000
  S   S5        1.0  0.2683049881660213  0.7316952139698809  0.2683046806475229  1.0000
  S   S6        1.0  0.7316950698261333  0.26830481887643287  0.7316952136964939  1.0000
