data_image0
_chemical_formula_structural       Ru2CS6
_chemical_formula_sum              "Ru2 C1 S6"
_cell_length_a       5.194667440010666
_cell_length_b       5.194667369346559
_cell_length_c       5.194667409631056
_cell_angle_alpha    59.999998992119096
_cell_angle_beta     59.999998870857475
_cell_angle_gamma    59.99999919871265

_space_group_name_H-M_alt    "P 1"
_space_group_IT_number       1

loop_
  _space_group_symop_operation_xyz
  'x, y, z'

loop_
  _atom_site_type_symbol
  _atom_site_label
  _atom_site_symmetry_multiplicity
  _atom_site_fract_x
  _atom_site_fract_y
  _atom_site_fract_z
  _atom_site_occupancy
  Ru  Ru1       1.0  0.25000008793678996  0.25000000691797325  0.24999983607417786  1.0000
  Ru  Ru2       1.0  0.7499999805867236  0.7500000301847037  0.7500000782554558  1.0000
  C   C1        1.0  0.9999995763126496  0.9999998373189425  7.032200848074283e-07  1.0000
  S   S1        1.0  0.26363830177645875  0.26363834317416673  0.7363614636329159  1.0000
  S   S2        1.0  0.736361785562361  0.736361717505476  0.26363806181582894  1.0000
  S   S3        1.0  0.7363617792891588  0.2636383281229824  0.26363824903383604  1.0000
  S   S4        1.0  0.26363848244581806  0.7363615628025141  0.736361734181106  1.0000
  S   S5        1.0  0.2636382947525362  0.7363618780399868  0.2636382376350134  1.0000
  S   S6        1.0  0.7363617461065444  0.2636382887359949  0.7363616699663582  1.0000
