data_image0
_chemical_formula_structural       Ru2CrS6
_chemical_formula_sum              "Ru2 Cr1 S6"
_cell_length_a       5.566630403593896
_cell_length_b       5.5666307056085715
_cell_length_c       5.56663076510301
_cell_angle_alpha    59.99999887137869
_cell_angle_beta     59.99999802875808
_cell_angle_gamma    59.999998917746915

_space_group_name_H-M_alt    "P 1"
_space_group_IT_number       1

loop_
  _space_group_symop_operation_xyz
  'x, y, z'

loop_
  _atom_site_type_symbol
  _atom_site_label
  _atom_site_symmetry_multiplicity
  _atom_site_fract_x
  _atom_site_fract_y
  _atom_site_fract_z
  _atom_site_occupancy
  Ru  Ru1       1.0  0.25000032137550393  0.24999988968112943  0.24999991623683607  1.0000
  Ru  Ru2       1.0  0.7500000259162437  0.7500001002737225  0.7500002051957926  1.0000
  Cr  Cr1       1.0  0.999999958135995  1.9801393414750986e-08  0.9999999643244176  1.0000
  S   S1        1.0  0.26976225576787144  0.26976225302310863  0.7302377273007713  1.0000
  S   S2        1.0  0.7302376801782005  0.7302377699340722  0.26976226174457  1.0000
  S   S3        1.0  0.7302377569335767  0.26976217692201426  0.26976224965474593  1.0000
  S   S4        1.0  0.26976222190471916  0.7302377360274307  0.7302377028880198  1.0000
  S   S5        1.0  0.2697622875598228  0.7302378041858933  0.2697620811682227  1.0000
  S   S6        1.0  0.7302375054878305  0.269762242972992  0.7302378881830494  1.0000
