data_image0
_chemical_formula_structural       Ru2FeSe6
_chemical_formula_sum              "Ru2 Fe1 Se6"
_cell_length_a       5.937459329007561
_cell_length_b       5.937456874717543
_cell_length_c       5.937456789208059
_cell_angle_alpha    59.99999903877605
_cell_angle_beta     60.00000426112398
_cell_angle_gamma    59.999993153119554

_space_group_name_H-M_alt    "P 1"
_space_group_IT_number       1

loop_
  _space_group_symop_operation_xyz
  'x, y, z'

loop_
  _atom_site_type_symbol
  _atom_site_label
  _atom_site_symmetry_multiplicity
  _atom_site_fract_x
  _atom_site_fract_y
  _atom_site_fract_z
  _atom_site_occupancy
  Ru  Ru1       1.0  0.25000129284754063  0.24999803870457513  0.24999548506567668  1.0000
  Ru  Ru2       1.0  0.7499978695640198  0.7500023939030167  0.7499994413158606  1.0000
  Fe  Fe1       1.0  4.587302026868534e-07  1.2376469868758371e-08  2.9329258330016746e-07  1.0000
  Se  Se1       1.0  0.2727483473611944  0.2727478328866232  0.727254072783097  1.0000
  Se  Se2       1.0  0.7272514056942787  0.7272523913840265  0.2727471029128371  1.0000
  Se  Se3       1.0  0.7272517868440321  0.27274684499798063  0.27274997600338663  1.0000
  Se  Se4       1.0  0.27274915700951197  0.727251749705456  0.7272523538206923  1.0000
  Se  Se5       1.0  0.27274827949032004  0.7272526394847867  0.27274858525404294  1.0000
  Se  Se6       1.0  0.7272514591963645  0.27274810047170417  0.7272527625232791  1.0000
