data_image0
_chemical_formula_structural       Ru2FeO6
_chemical_formula_sum              "Ru2 Fe1 O6"
_cell_length_a       5.266247579707044
_cell_length_b       5.266247577803471
_cell_length_c       5.266247104020967
_cell_angle_alpha    60.00000130714663
_cell_angle_beta     60.00000034302391
_cell_angle_gamma    60.00000106925609

_space_group_name_H-M_alt    "P 1"
_space_group_IT_number       1

loop_
  _space_group_symop_operation_xyz
  'x, y, z'

loop_
  _atom_site_type_symbol
  _atom_site_label
  _atom_site_symmetry_multiplicity
  _atom_site_fract_x
  _atom_site_fract_y
  _atom_site_fract_z
  _atom_site_occupancy
  Ru  Ru1       1.0  0.25000256310091323  0.24999994719834326  0.24999843439523226  1.0000
  Ru  Ru2       1.0  0.7500018543214475  0.7499973298930158  0.750001950775239  1.0000
  Fe  Fe1       1.0  0.9999999243860622  5.581559959492978e-08  0.9999999396404082  1.0000
  O   O1        1.0  0.25097718663349106  0.25097842740598003  0.7490221213711007  1.0000
  O   O2        1.0  0.7490211222559193  0.7490230195757677  0.25097726777428064  1.0000
  O   O3        1.0  0.7490214457479935  0.2509791014734354  0.25097667569744814  1.0000
  O   O4        1.0  0.25097710088973707  0.7490216059516235  0.7490228940933603  1.0000
  O   O5        1.0  0.2509773294117687  0.7490222034370858  0.2509781473937173  1.0000
  O   O6        1.0  0.7490214875444311  0.25097831793596603  0.7490225442806377  1.0000
