data_image0
_chemical_formula_structural       Ru2GeSe6
_chemical_formula_sum              "Ru2 Ge1 Se6"
_cell_length_a       6.294810115734655
_cell_length_b       6.294809875315877
_cell_length_c       6.294809959664438
_cell_angle_alpha    59.99999841784839
_cell_angle_beta     59.99999851487493
_cell_angle_gamma    59.99999714687928

_space_group_name_H-M_alt    "P 1"
_space_group_IT_number       1

loop_
  _space_group_symop_operation_xyz
  'x, y, z'

loop_
  _atom_site_type_symbol
  _atom_site_label
  _atom_site_symmetry_multiplicity
  _atom_site_fract_x
  _atom_site_fract_y
  _atom_site_fract_z
  _atom_site_occupancy
  Ru  Ru1       1.0  0.2500000781220868  0.2499994025519288  0.25000032625837976  1.0000
  Ru  Ru2       1.0  0.7499998962182549  0.7500000365596518  0.7500001460236325  1.0000
  Ge  Ge1       1.0  4.131939675828037e-08  1.3619496273240299e-08  0.999999974119163  1.0000
  Se  Se1       1.0  0.2724434703238863  0.2724432977973888  0.7275566311416821  1.0000
  Se  Se2       1.0  0.7275564480662639  0.7275567989413264  0.27244329406725576  1.0000
  Se  Se3       1.0  0.7275565555428217  0.2724434716496926  0.27244324467604775  1.0000
  Se  Se4       1.0  0.27244338463393364  0.7275568293814754  0.7275564451703653  1.0000
  Se  Se5       1.0  0.2724433538980696  0.7275568157276631  0.27244337763616644  1.0000
  Se  Se6       1.0  0.7275567791863589  0.27244334132596326  0.7275565530431004  1.0000
