data_image0
_chemical_formula_structural       Ru2HfSe6
_chemical_formula_sum              "Ru2 Hf1 Se6"
_cell_length_a       6.486450587539058
_cell_length_b       6.486450637830069
_cell_length_c       6.486450617632585
_cell_angle_alpha    60.000000798291026
_cell_angle_beta     60.00000148174954
_cell_angle_gamma    60.00000244948586

_space_group_name_H-M_alt    "P 1"
_space_group_IT_number       1

loop_
  _space_group_symop_operation_xyz
  'x, y, z'

loop_
  _atom_site_type_symbol
  _atom_site_label
  _atom_site_symmetry_multiplicity
  _atom_site_fract_x
  _atom_site_fract_y
  _atom_site_fract_z
  _atom_site_occupancy
  Ru  Ru1       1.0  0.2499999434525841  0.2499999109622222  0.24999991087736775  1.0000
  Ru  Ru2       1.0  0.7499999473399659  0.7500000708670863  0.7500001495710201  1.0000
  Hf  Hf1       1.0  0.9999999990651854  0.9999999867828888  9.340977350308316e-08  1.0000
  Se  Se1       1.0  0.272518733065039  0.2725187826869529  0.7274812025802242  1.0000
  Se  Se2       1.0  0.7274812506019405  0.7274812142476269  0.27251856491865994  1.0000
  Se  Se3       1.0  0.7274813454348854  0.27251880038004916  0.2725188057505215  1.0000
  Se  Se4       1.0  0.2725188568879667  0.7274811814492654  0.7274812161000306  1.0000
  Se  Se5       1.0  0.2725188349391557  0.7274812675298301  0.2725187270661112  1.0000
  Se  Se6       1.0  0.7274810976951397  0.27251879171398813  0.7274813184627306  1.0000
