data_image0
_chemical_formula_structural       Ru2HfS6
_chemical_formula_sum              "Ru2 Hf1 S6"
_cell_length_a       6.0403485474117975
_cell_length_b       6.040348150996553
_cell_length_c       6.040348144571462
_cell_angle_alpha    60.000001080573654
_cell_angle_beta     59.999999002616036
_cell_angle_gamma    60.000000638260694

_space_group_name_H-M_alt    "P 1"
_space_group_IT_number       1

loop_
  _space_group_symop_operation_xyz
  'x, y, z'

loop_
  _atom_site_type_symbol
  _atom_site_label
  _atom_site_symmetry_multiplicity
  _atom_site_fract_x
  _atom_site_fract_y
  _atom_site_fract_z
  _atom_site_occupancy
  Ru  Ru1       1.0  0.24999983250260796  0.2500001990882683  0.24999994994902225  1.0000
  Ru  Ru2       1.0  0.7499997829330659  0.7499999646516059  0.7499997916663131  1.0000
  Hf  Hf1       1.0  4.8738719520132046e-08  0.9999999168681389  4.534064209663006e-08  1.0000
  S   S1        1.0  0.2736229316301273  0.2736230547506358  0.7263769717903712  1.0000
  S   S2        1.0  0.7263770816995115  0.726377027885002  0.27362318755582227  1.0000
  S   S3        1.0  0.7263770368998989  0.2736229082395462  0.2736230479893871  1.0000
  S   S4        1.0  0.27362314610576677  0.7263769979943363  0.7263770700202549  1.0000
  S   S5        1.0  0.2736230674820176  0.7263768533260995  0.2736229886057386  1.0000
  S   S6        1.0  0.726377069316176  0.2736230366869266  0.7263769735427589  1.0000
