data_image0
_chemical_formula_structural       Ru2IrO6
_chemical_formula_sum              "Ru2 Ir1 O6"
_cell_length_a       5.465964913787783
_cell_length_b       5.465963859940403
_cell_length_c       5.465966022010529
_cell_angle_alpha    59.99997237153598
_cell_angle_beta     59.99998315157856
_cell_angle_gamma    59.99995614801018

_space_group_name_H-M_alt    "P 1"
_space_group_IT_number       1

loop_
  _space_group_symop_operation_xyz
  'x, y, z'

loop_
  _atom_site_type_symbol
  _atom_site_label
  _atom_site_symmetry_multiplicity
  _atom_site_fract_x
  _atom_site_fract_y
  _atom_site_fract_z
  _atom_site_occupancy
  Ru  Ru1       1.0  0.25000514657790757  0.24996920565656416  0.2500974281555637  1.0000
  Ru  Ru2       1.0  0.7500480911942411  0.7499928948725443  0.7500260114957944  1.0000
  Ir  Ir1       1.0  0.9999981248165732  1.5124573462300806e-06  0.999995620412602  1.0000
  O   O1        1.0  0.24511751135723464  0.24513717984573655  0.754836740897884  1.0000
  O   O2        1.0  0.7548683548823276  0.7548759409164814  0.24510802728445685  1.0000
  O   O3        1.0  0.7548603747047178  0.2451372882804405  0.2451142043525794  1.0000
  O   O4        1.0  0.2451037634588539  0.7549035362037597  0.7548373272551716  1.0000
  O   O5        1.0  0.245121176434483  0.7548637928552138  0.24512591663999142  1.0000
  O   O6        1.0  0.7548784236550145  0.24511846931036058  0.7548581184630992  1.0000
