data_image0
_chemical_formula_structural       Ru2IrSe6
_chemical_formula_sum              "Ru2 Ir1 Se6"
_cell_length_a       6.303790548791324
_cell_length_b       6.303790732750994
_cell_length_c       6.303790577962857
_cell_angle_alpha    59.9999987985426
_cell_angle_beta     60.00000144793798
_cell_angle_gamma    59.99999995107334

_space_group_name_H-M_alt    "P 1"
_space_group_IT_number       1

loop_
  _space_group_symop_operation_xyz
  'x, y, z'

loop_
  _atom_site_type_symbol
  _atom_site_label
  _atom_site_symmetry_multiplicity
  _atom_site_fract_x
  _atom_site_fract_y
  _atom_site_fract_z
  _atom_site_occupancy
  Ru  Ru1       1.0  0.2500001452666845  0.25000024560653283  0.2500001973593032  1.0000
  Ru  Ru2       1.0  0.7500003345523817  0.7499997381841891  0.7500007184647842  1.0000
  Ir  Ir1       1.0  9.140369416857035e-08  0.9999999455996241  7.033378127472837e-08  1.0000
  Se  Se1       1.0  0.2718944519036458  0.271894714343599  0.7281053513112631  1.0000
  Se  Se2       1.0  0.7281052151871524  0.7281053996194867  0.2718944955281788  1.0000
  Se  Se3       1.0  0.7281053173394244  0.27189508335705326  0.2718941208973632  1.0000
  Se  Se4       1.0  0.27189448013283696  0.7281053978085559  0.728105320101717  1.0000
  Se  Se5       1.0  0.271894591150392  0.728105152581199  0.27189453844308953  1.0000
  Se  Se6       1.0  0.728105350954883  0.27189433966334425  0.7281051882741817  1.0000
