data_image0
_chemical_formula_structural       Ru2IrS6
_chemical_formula_sum              "Ru2 Ir1 S6"
_cell_length_a       5.714223450753023
_cell_length_b       5.714223743695363
_cell_length_c       5.714223753421186
_cell_angle_alpha    59.99999781435742
_cell_angle_beta     59.999998536886864
_cell_angle_gamma    60.00000173265418

_space_group_name_H-M_alt    "P 1"
_space_group_IT_number       1

loop_
  _space_group_symop_operation_xyz
  'x, y, z'

loop_
  _atom_site_type_symbol
  _atom_site_label
  _atom_site_symmetry_multiplicity
  _atom_site_fract_x
  _atom_site_fract_y
  _atom_site_fract_z
  _atom_site_occupancy
  Ru  Ru1       1.0  0.2500001677795668  0.2500000455784712  0.24999998492063885  1.0000
  Ru  Ru2       1.0  0.7500000029917626  0.7499999888458563  0.7500001423786853  1.0000
  Ir  Ir1       1.0  1.7045063548523838e-08  0.9999999185535836  0.9999999884502033  1.0000
  S   S1        1.0  0.2742725570422771  0.2742727036054346  0.7257273775129571  1.0000
  S   S2        1.0  0.7257273012065283  0.7257273651121152  0.27427282240029566  1.0000
  S   S3        1.0  0.7257272616944214  0.2742726520829936  0.2742725330866278  1.0000
  S   S4        1.0  0.27427263111019323  0.7257274766477162  0.7257272572882114  1.0000
  S   S5        1.0  0.27427268194906246  0.7257273444354408  0.2742725350326205  1.0000
  S   S6        1.0  0.7257273461897767  0.274272469226234  0.7257273802100087  1.0000
