data_image0
_chemical_formula_structural       Ru2MnS6
_chemical_formula_sum              "Ru2 Mn1 S6"
_cell_length_a       5.542185630901706
_cell_length_b       5.542185628355027
_cell_length_c       5.542185988905154
_cell_angle_alpha    60.00000115963739
_cell_angle_beta     60.000000182241756
_cell_angle_gamma    59.99999953448419

_space_group_name_H-M_alt    "P 1"
_space_group_IT_number       1

loop_
  _space_group_symop_operation_xyz
  'x, y, z'

loop_
  _atom_site_type_symbol
  _atom_site_label
  _atom_site_symmetry_multiplicity
  _atom_site_fract_x
  _atom_site_fract_y
  _atom_site_fract_z
  _atom_site_occupancy
  Ru  Ru1       1.0  0.24999932844694409  0.25000052535645245  0.2500001316506818  1.0000
  Ru  Ru2       1.0  0.749999602439652  0.7499999562427123  0.7500002970771253  1.0000
  Mn  Mn1       1.0  1.3900427475738532e-07  0.999999958012675  0.9999998504483639  1.0000
  S   S1        1.0  0.26959377299486076  0.26959353141274267  0.7304062782706748  1.0000
  S   S2        1.0  0.7304066867547787  0.730406170106185  0.26959366058783657  1.0000
  S   S3        1.0  0.7304065434840132  0.2695935280417262  0.2695935554448018  1.0000
  S   S4        1.0  0.26959356455545685  0.7304063347969055  0.7304063108051165  1.0000
  S   S5        1.0  0.2695938981930871  0.7304063016466152  0.26959341354923516  1.0000
  S   S6        1.0  0.7304064547466985  0.2695937203018641  0.7304064257168023  1.0000
