data_image0
_chemical_formula_structural       Ru2MoO6
_chemical_formula_sum              "Ru2 Mo1 O6"
_cell_length_a       5.374077979598571
_cell_length_b       5.374077830959374
_cell_length_c       5.374077600215171
_cell_angle_alpha    60.00000128847625
_cell_angle_beta     59.99999954161343
_cell_angle_gamma    60.00000235856084

_space_group_name_H-M_alt    "P 1"
_space_group_IT_number       1

loop_
  _space_group_symop_operation_xyz
  'x, y, z'

loop_
  _atom_site_type_symbol
  _atom_site_label
  _atom_site_symmetry_multiplicity
  _atom_site_fract_x
  _atom_site_fract_y
  _atom_site_fract_z
  _atom_site_occupancy
  Ru  Ru1       1.0  0.25000291167550753  0.24999374919742462  0.2500012788337052  1.0000
  Ru  Ru2       1.0  0.7500030784134367  0.7499954456753308  0.7500042772724479  1.0000
  Mo  Mo1       1.0  8.564438096143246e-08  0.9999998655398243  0.9999999909137757  1.0000
  O   O1        1.0  0.2552464157634443  0.25524928715292794  0.7447520795917316  1.0000
  O   O2        1.0  0.7447505868453806  0.7447544681615003  0.25524621670801634  1.0000
  O   O3        1.0  0.7447519756214677  0.2552498124614257  0.25524589174534346  1.0000
  O   O4        1.0  0.25524618013382294  0.7447542414001983  0.7447508487976869  1.0000
  O   O5        1.0  0.2552472949566631  0.7447543030550431  0.255247100073257  1.0000
  O   O6        1.0  0.7447515190600227  0.25524884604915415  0.7447522627512847  1.0000
