data_image0
_chemical_formula_structural       Ru2NiO6
_chemical_formula_sum              "Ru2 Ni1 O6"
_cell_length_a       5.137747190179757
_cell_length_b       5.137747131547318
_cell_length_c       5.137747102377066
_cell_angle_alpha    60.00000118428853
_cell_angle_beta     60.00000133687198
_cell_angle_gamma    60.000001180510104

_space_group_name_H-M_alt    "P 1"
_space_group_IT_number       1

loop_
  _space_group_symop_operation_xyz
  'x, y, z'

loop_
  _atom_site_type_symbol
  _atom_site_label
  _atom_site_symmetry_multiplicity
  _atom_site_fract_x
  _atom_site_fract_y
  _atom_site_fract_z
  _atom_site_occupancy
  Ru  Ru1       1.0  0.25000041372829424  0.2500000141859206  0.25000004802034526  1.0000
  Ru  Ru2       1.0  0.7499996059941618  0.749999951972701  0.7500001038293375  1.0000
  Ni  Ni1       1.0  4.76763362181614e-09  0.9999999856970982  0.9999999775183364  1.0000
  O   O1        1.0  0.246933481024114  0.2469335453970688  0.7530664779479536  1.0000
  O   O2        1.0  0.7530665317961653  0.7530664684378906  0.24693358928416154  1.0000
  O   O3        1.0  0.7530661271242081  0.24693356075949668  0.24693347637264088  1.0000
  O   O4        1.0  0.24693376308154238  0.7530665579634048  0.7530663895139003  1.0000
  O   O5        1.0  0.24693362312511835  0.7530664536012992  0.2469333840233248  1.0000
  O   O6        1.0  0.7530664616614341  0.24693347918388375  0.7530665184156208  1.0000
