data_image0
_chemical_formula_structural       Ru2NiSe6
_chemical_formula_sum              "Ru2 Ni1 Se6"
_cell_length_a       6.079999103084927
_cell_length_b       6.07999870924648
_cell_length_c       6.079998940348371
_cell_angle_alpha    60.000002888838566
_cell_angle_beta     60.000003972969814
_cell_angle_gamma    60.00000330895804

_space_group_name_H-M_alt    "P 1"
_space_group_IT_number       1

loop_
  _space_group_symop_operation_xyz
  'x, y, z'

loop_
  _atom_site_type_symbol
  _atom_site_label
  _atom_site_symmetry_multiplicity
  _atom_site_fract_x
  _atom_site_fract_y
  _atom_site_fract_z
  _atom_site_occupancy
  Ru  Ru1       1.0  0.2500002015840235  0.2499995276501022  0.2500005667848023  1.0000
  Ru  Ru2       1.0  0.750000714153284  0.7499998842418998  0.7499988749418881  1.0000
  Ni  Ni1       1.0  0.9999999579119906  0.9999999496404208  2.3043435013362806e-07  1.0000
  Se  Se1       1.0  0.266269973494925  0.2662703266503091  0.7337298068610565  1.0000
  Se  Se2       1.0  0.7337296787153414  0.7337300783326927  0.2662704658074615  1.0000
  Se  Se3       1.0  0.7337297568980807  0.26626986310367534  0.2662703029602993  1.0000
  Se  Se4       1.0  0.2662700786769566  0.7337300886430532  0.7337296260254554  1.0000
  Se  Se5       1.0  0.2662695868857705  0.7337299250752406  0.2662705432864962  1.0000
  Se  Se6       1.0  0.7337300418069799  0.26627038523173363  0.7337295631498035  1.0000
