data_image0
_chemical_formula_structural       Ru2NbO6
_chemical_formula_sum              "Ru2 Nb1 O6"
_cell_length_a       5.418631100626225
_cell_length_b       5.418631216888298
_cell_length_c       5.418631043395573
_cell_angle_alpha    59.99999191095006
_cell_angle_beta     59.99999166466766
_cell_angle_gamma    59.999993658370244

_space_group_name_H-M_alt    "P 1"
_space_group_IT_number       1

loop_
  _space_group_symop_operation_xyz
  'x, y, z'

loop_
  _atom_site_type_symbol
  _atom_site_label
  _atom_site_symmetry_multiplicity
  _atom_site_fract_x
  _atom_site_fract_y
  _atom_site_fract_z
  _atom_site_occupancy
  Ru  Ru1       1.0  0.249996894140783  0.2500034161391363  0.2499959408725018  1.0000
  Ru  Ru2       1.0  0.7500000707263145  0.7500055584019767  0.7499987572709068  1.0000
  Nb  Nb1       1.0  0.9999999738667916  1.0397140126827038e-07  0.9999999850721976  1.0000
  O   O1        1.0  0.2582128010519897  0.25821211267244754  0.7417888899792404  1.0000
  O   O2        1.0  0.7417902703261499  0.7417842768081031  0.2582127863911431  1.0000
  O   O3        1.0  0.7417875440232978  0.25821112386057715  0.25821400011721746  1.0000
  O   O4        1.0  0.25821243059414667  0.7417860341043109  0.7417886576885222  1.0000
  O   O5        1.0  0.2582129871141726  0.7417881930173279  0.2582127330719806  1.0000
  O   O6        1.0  0.7417870519422854  0.25820938535377336  0.7417881579408547  1.0000
