data_image0
_chemical_formula_structural       Ru2NbS6
_chemical_formula_sum              "Ru2 Nb1 S6"
_cell_length_a       5.925598697574087
_cell_length_b       5.925598584508098
_cell_length_c       5.9255984548944465
_cell_angle_alpha    60.00000072382984
_cell_angle_beta     60.00000285052306
_cell_angle_gamma    60.00000051216831

_space_group_name_H-M_alt    "P 1"
_space_group_IT_number       1

loop_
  _space_group_symop_operation_xyz
  'x, y, z'

loop_
  _atom_site_type_symbol
  _atom_site_label
  _atom_site_symmetry_multiplicity
  _atom_site_fract_x
  _atom_site_fract_y
  _atom_site_fract_z
  _atom_site_occupancy
  Ru  Ru1       1.0  0.2500000650809587  0.2500000139518151  0.25000009031045617  1.0000
  Ru  Ru2       1.0  0.7499999964182302  0.7500001472658737  0.750000253509931  1.0000
  Nb  Nb1       1.0  0.999999957325224  5.787239259950684e-08  0.9999998607689171  1.0000
  S   S1        1.0  0.27262371864764273  0.2726238255142938  0.727376196423514  1.0000
  S   S2        1.0  0.7273761502107061  0.7273762530285528  0.27262370283503834  1.0000
  S   S3        1.0  0.7273761989074656  0.27262370273888836  0.27262380921988116  1.0000
  S   S4        1.0  0.2726238880495279  0.7273760430377045  0.7273762250017678  1.0000
  S   S5        1.0  0.27262378331431314  0.7273763308348902  0.2726236860155813  1.0000
  S   S6        1.0  0.7273762433487962  0.2726236133613326  0.727376159324073  1.0000
