data_image0
_chemical_formula_structural       Ru2NbSe6
_chemical_formula_sum              "Ru2 Nb1 Se6"
_cell_length_a       6.476119166512781
_cell_length_b       6.476119200407497
_cell_length_c       6.476119128182741
_cell_angle_alpha    59.999999537414986
_cell_angle_beta     60.00000005786298
_cell_angle_gamma    60.00000086993114

_space_group_name_H-M_alt    "P 1"
_space_group_IT_number       1

loop_
  _space_group_symop_operation_xyz
  'x, y, z'

loop_
  _atom_site_type_symbol
  _atom_site_label
  _atom_site_symmetry_multiplicity
  _atom_site_fract_x
  _atom_site_fract_y
  _atom_site_fract_z
  _atom_site_occupancy
  Ru  Ru1       1.0  0.250000339083952  0.2500000617386898  0.24999981411077882  1.0000
  Ru  Ru2       1.0  0.7500001048003342  0.7500001303721044  0.7499994951665113  1.0000
  Nb  Nb1       1.0  0.9999999533171859  1.7020537669359877e-08  8.89496017376266e-08  1.0000
  Se  Se1       1.0  0.26768820185585895  0.26768826859156  0.7323118140521329  1.0000
  Se  Se2       1.0  0.7323117660752689  0.7323117306197832  0.26768842723157654  1.0000
  Se  Se3       1.0  0.732311602679494  0.2676881095307346  0.2676884485350778  1.0000
  Se  Se4       1.0  0.26768829885069934  0.7323117251487343  0.7323116626976265  1.0000
  Se  Se5       1.0  0.26768818351933377  0.732311661204036  0.26768839219615187  1.0000
  Se  Se6       1.0  0.7323115322869551  0.2676883134220825  0.7323118561911439  1.0000
