data_image0
_chemical_formula_structural       Ru2OsO6
_chemical_formula_sum              "Ru2 Os1 O6"
_cell_length_a       5.500676102198714
_cell_length_b       5.500676382815692
_cell_length_c       5.500676037139913
_cell_angle_alpha    59.99999994680887
_cell_angle_beta     59.99999995040655
_cell_angle_gamma    60.00000063482254

_space_group_name_H-M_alt    "P 1"
_space_group_IT_number       1

loop_
  _space_group_symop_operation_xyz
  'x, y, z'

loop_
  _atom_site_type_symbol
  _atom_site_label
  _atom_site_symmetry_multiplicity
  _atom_site_fract_x
  _atom_site_fract_y
  _atom_site_fract_z
  _atom_site_occupancy
  Ru  Ru1       1.0  0.24999989092731195  0.25000258424929245  0.2499964490034488  1.0000
  Ru  Ru2       1.0  0.7499964602045772  0.7500027296847345  0.7499989568829013  1.0000
  Os  Os1       1.0  8.225071466006876e-08  0.999999979961182  8.34254285445676e-08  1.0000
  O   O1        1.0  0.24019953467103022  0.24019708419174385  0.7598024990454916  1.0000
  O   O2        1.0  0.7598026386814987  0.7598006817884106  0.24019875273144836  1.0000
  O   O3        1.0  0.7598019675851824  0.24019723596389855  0.2401994078191775  1.0000
  O   O4        1.0  0.24019950766964554  0.7598004075568173  0.7598028414368874  1.0000
  O   O5        1.0  0.2401988244409532  0.7598013054104529  0.24019830719543397  1.0000
  O   O6        1.0  0.7598010971667989  0.24019803918305702  0.759802601230771  1.0000
