data_image0
_chemical_formula_structural       Ru2OsS6
_chemical_formula_sum              "Ru2 Os1 S6"
_cell_length_a       5.650083859113186
_cell_length_b       5.650084244371694
_cell_length_c       5.6500841437172316
_cell_angle_alpha    59.99999847700136
_cell_angle_beta     59.99999859671772
_cell_angle_gamma    60.00000116798148

_space_group_name_H-M_alt    "P 1"
_space_group_IT_number       1

loop_
  _space_group_symop_operation_xyz
  'x, y, z'

loop_
  _atom_site_type_symbol
  _atom_site_label
  _atom_site_symmetry_multiplicity
  _atom_site_fract_x
  _atom_site_fract_y
  _atom_site_fract_z
  _atom_site_occupancy
  Ru  Ru1       1.0  0.24999991239902059  0.24999990953775306  0.2500001206063333  1.0000
  Ru  Ru2       1.0  0.7500000700665398  0.7499999562173133  0.7500005169739768  1.0000
  Os  Os1       1.0  0.9999999275429831  0.9999999414732413  3.540384111306696e-08  1.0000
  S   S1        1.0  0.2751997696816364  0.2751996922547595  0.724800220280542  1.0000
  S   S2        1.0  0.7248001799785736  0.7248003577512314  0.27519960176498703  1.0000
  S   S3        1.0  0.7248005019081587  0.2751998895577761  0.275199495441186  1.0000
  S   S4        1.0  0.2751995498300811  0.7248003446991224  0.7248001852097569  1.0000
  S   S5        1.0  0.27519988305863813  0.7248003775884702  0.27519946074564045  1.0000
  S   S6        1.0  0.7248001625947178  0.27519956836995146  0.7248003547077913  1.0000
