data_image0
_chemical_formula_structural       Ru2OsSe6
_chemical_formula_sum              "Ru2 Os1 Se6"
_cell_length_a       6.3060459534207105
_cell_length_b       6.306045686111348
_cell_length_c       6.306045516393604
_cell_angle_alpha    59.99999674354348
_cell_angle_beta     59.99999590896501
_cell_angle_gamma    59.99999609343296

_space_group_name_H-M_alt    "P 1"
_space_group_IT_number       1

loop_
  _space_group_symop_operation_xyz
  'x, y, z'

loop_
  _atom_site_type_symbol
  _atom_site_label
  _atom_site_symmetry_multiplicity
  _atom_site_fract_x
  _atom_site_fract_y
  _atom_site_fract_z
  _atom_site_occupancy
  Ru  Ru1       1.0  0.24999937268093247  0.2499992356770612  0.2500007206131564  1.0000
  Ru  Ru2       1.0  0.74999992964119  0.7500003309106519  0.7499996983044904  1.0000
  Os  Os1       1.0  0.9999999708515858  0.9999999281394993  0.9999999188847324  1.0000
  Se  Se1       1.0  0.27243924160483934  0.2724388685615815  0.7275611172723796  1.0000
  Se  Se2       1.0  0.727560909287907  0.7275610417912238  0.27243925732875024  1.0000
  Se  Se3       1.0  0.7275612755390211  0.2724389643166869  0.27243905961062237  1.0000
  Se  Se4       1.0  0.2724389739440431  0.7275616335663524  0.7275605540292768  1.0000
  Se  Se5       1.0  0.27243884265086626  0.7275611759182274  0.2724390463279026  1.0000
  Se  Se6       1.0  0.7275614649009357  0.2724388412542552  0.7275607192141107  1.0000
