data_image0
_chemical_formula_structural       Ru2PtS6
_chemical_formula_sum              "Ru2 Pt1 S6"
_cell_length_a       5.93634198701722
_cell_length_b       5.936342052221546
_cell_length_c       5.9363424463479975
_cell_angle_alpha    59.99999728277627
_cell_angle_beta     59.999994512597155
_cell_angle_gamma    59.99999685825087

_space_group_name_H-M_alt    "P 1"
_space_group_IT_number       1

loop_
  _space_group_symop_operation_xyz
  'x, y, z'

loop_
  _atom_site_type_symbol
  _atom_site_label
  _atom_site_symmetry_multiplicity
  _atom_site_fract_x
  _atom_site_fract_y
  _atom_site_fract_z
  _atom_site_occupancy
  Ru  Ru1       1.0  0.24999958711251138  0.2499998458745802  0.2500003674207969  1.0000
  Ru  Ru2       1.0  0.749999967727567  0.7500000265856815  0.7500000861324816  1.0000
  Pt  Pt1       1.0  6.020153887796096e-08  0.9999999711161706  0.9999999759184494  1.0000
  S   S1        1.0  0.2666603853144202  0.26666009631431586  0.7333397781185713  1.0000
  S   S2        1.0  0.733339739821931  0.7333399267544729  0.26666009936130985  1.0000
  S   S3        1.0  0.7333399500731651  0.2666602525420026  0.26666024360567836  1.0000
  S   S4        1.0  0.2666601822132861  0.7333398716201868  0.7333396690330156  1.0000
  S   S5        1.0  0.2666602481868944  0.7333396216376388  0.2666602315059103  1.0000
  S   S6        1.0  0.7333398932387635  0.26666032922157795  0.7333396132907016  1.0000
