data_image0
_chemical_formula_structural       Ru2PtSe6
_chemical_formula_sum              "Ru2 Pt1 Se6"
_cell_length_a       6.197851223931292
_cell_length_b       6.197850622449508
_cell_length_c       6.19785100265747
_cell_angle_alpha    59.999993082902336
_cell_angle_beta     59.99999713594091
_cell_angle_gamma    59.999999488226294

_space_group_name_H-M_alt    "P 1"
_space_group_IT_number       1

loop_
  _space_group_symop_operation_xyz
  'x, y, z'

loop_
  _atom_site_type_symbol
  _atom_site_label
  _atom_site_symmetry_multiplicity
  _atom_site_fract_x
  _atom_site_fract_y
  _atom_site_fract_z
  _atom_site_occupancy
  Ru  Ru1       1.0  0.2500001113127744  0.24999952296743747  0.24999984468893954  1.0000
  Ru  Ru2       1.0  0.7500002352600647  0.7499992170565639  0.7500000047484633  1.0000
  Pt  Pt1       1.0  0.9999999821216582  2.5689041425748673e-08  0.9999999815734876  1.0000
  Se  Se1       1.0  0.27563085384343683  0.27563161140790154  0.7243687483376361  1.0000
  Se  Se2       1.0  0.7243687949344378  0.7243688754708668  0.2756315672357801  1.0000
  Se  Se3       1.0  0.7243690238628488  0.27563155707080483  0.2756308319313229  1.0000
  Se  Se4       1.0  0.27563103887410606  0.7243688784299194  0.7243689086667211  1.0000
  Se  Se5       1.0  0.2756313338196354  0.7243690545215972  0.27563108832918715  1.0000
  Se  Se6       1.0  0.7243686003303073  0.275631252533898  0.7243690889563185  1.0000
