data_image0
_chemical_formula_structural       Ru2PtO6
_chemical_formula_sum              "Ru2 Pt1 O6"
_cell_length_a       5.394334045690951
_cell_length_b       5.394333922184895
_cell_length_c       5.394334277815294
_cell_angle_alpha    59.99999934398329
_cell_angle_beta     59.999998400791924
_cell_angle_gamma    59.999997611048556

_space_group_name_H-M_alt    "P 1"
_space_group_IT_number       1

loop_
  _space_group_symop_operation_xyz
  'x, y, z'

loop_
  _atom_site_type_symbol
  _atom_site_label
  _atom_site_symmetry_multiplicity
  _atom_site_fract_x
  _atom_site_fract_y
  _atom_site_fract_z
  _atom_site_occupancy
  Ru  Ru1       1.0  0.24999892777460667  0.2500001648124356  0.2500000560377565  1.0000
  Ru  Ru2       1.0  0.749999859423799  0.7499992547833632  0.7499996262109978  1.0000
  Pt  Pt1       1.0  2.983827666884109e-08  6.811285988215404e-09  5.397329664070993e-08  1.0000
  O   O1        1.0  0.2507131641627881  0.25071330398099345  0.7492868486025458  1.0000
  O   O2        1.0  0.7492870436795246  0.7492866764106253  0.25071353915048566  1.0000
  O   O3        1.0  0.749287372358528  0.25071330512731727  0.25071312498715587  1.0000
  O   O4        1.0  0.25071348476961286  0.74928678878571  0.7492868517015079  1.0000
  O   O5        1.0  0.25071323572066034  0.7492869092508091  0.250713106605925  1.0000
  O   O6        1.0  0.7492868980135071  0.2507136273957614  0.7492867620041792  1.0000
