data_image0
_chemical_formula_structural       Ru2PS6
_chemical_formula_sum              "Ru2 P1 S6"
_cell_length_a       5.306013577902245
_cell_length_b       5.306013348904187
_cell_length_c       5.306014101795609
_cell_angle_alpha    60.00000648105916
_cell_angle_beta     60.000023780662566
_cell_angle_gamma    60.00002137685417

_space_group_name_H-M_alt    "P 1"
_space_group_IT_number       1

loop_
  _space_group_symop_operation_xyz
  'x, y, z'

loop_
  _atom_site_type_symbol
  _atom_site_label
  _atom_site_symmetry_multiplicity
  _atom_site_fract_x
  _atom_site_fract_y
  _atom_site_fract_z
  _atom_site_occupancy
  Ru  Ru1       1.0  0.25000229111928274  0.24999910536961217  0.2499994887657264  1.0000
  Ru  Ru2       1.0  0.749999955269126  0.7500013831916988  0.7499964730369221  1.0000
  P   P1        1.0  0.999999707878702  2.1697266998605065e-07  6.105090485021425e-07  1.0000
  S   S1        1.0  0.27050292135477133  0.2705063724772659  0.7294984086365692  1.0000
  S   S2        1.0  0.7294951732943002  0.7294950809196796  0.2705098891442103  1.0000
  S   S3        1.0  0.7294907195427438  0.2705039537484149  0.27050581957976105  1.0000
  S   S4        1.0  0.27050480196673193  0.7294974304012317  0.7294933169491209  1.0000
  S   S5        1.0  0.2705071513908234  0.7294945246582338  0.27050251003500564  1.0000
  S   S6        1.0  0.7294973837575279  0.2705019245179647  0.7294931717875335  1.0000
