data_image0
_chemical_formula_structural       Ru2PdO6
_chemical_formula_sum              "Ru2 Pd1 O6"
_cell_length_a       6.526101721261144
_cell_length_b       6.132723754186714
_cell_length_c       5.671029206971884
_cell_angle_alpha    58.79766983335868
_cell_angle_beta     51.57996717299197
_cell_angle_gamma    32.558150363977255

_space_group_name_H-M_alt    "P 1"
_space_group_IT_number       1

loop_
  _space_group_symop_operation_xyz
  'x, y, z'

loop_
  _atom_site_type_symbol
  _atom_site_label
  _atom_site_symmetry_multiplicity
  _atom_site_fract_x
  _atom_site_fract_y
  _atom_site_fract_z
  _atom_site_occupancy
  Ru  Ru1       1.0  0.8468251657445763  0.259854572484721  0.3949289005819622  1.0000
  Ru  Ru2       1.0  0.6870433842961222  0.7369252198666901  0.7419459619360662  1.0000
  Pd  Pd1       1.0  0.7667559079737779  0.9985226346261201  0.06852402763613069  1.0000
  O   O1        1.0  0.09541928353786075  0.2101025237124869  0.9056513626850523  1.0000
  O   O2        1.0  0.43831580687649824  0.7868226142933217  0.23129963561886233  1.0000
  O   O3        1.0  0.6138400914286483  0.17024579034271428  0.41293985735905486  1.0000
  O   O4        1.0  0.9199912183540556  0.8265292130709606  0.7240256198860926  1.0000
  O   O5        1.0  0.9859560171472969  0.5050493029035134  0.34264449717359247  1.0000
  O   O6        1.0  0.5479214035611909  0.4918136688427477  0.7940964510496503  1.0000
