data_image0
_chemical_formula_structural       Ru2ReO6
_chemical_formula_sum              "Ru2 Re1 O6"
_cell_length_a       5.412986621158188
_cell_length_b       5.412986607460738
_cell_length_c       5.412986194876072
_cell_angle_alpha    60.000006190374485
_cell_angle_beta     60.00000348700557
_cell_angle_gamma    59.999999459800215

_space_group_name_H-M_alt    "P 1"
_space_group_IT_number       1

loop_
  _space_group_symop_operation_xyz
  'x, y, z'

loop_
  _atom_site_type_symbol
  _atom_site_label
  _atom_site_symmetry_multiplicity
  _atom_site_fract_x
  _atom_site_fract_y
  _atom_site_fract_z
  _atom_site_occupancy
  Ru  Ru1       1.0  0.25000449253796697  0.2500008672453709  0.2499985632493534  1.0000
  Ru  Ru2       1.0  0.7500075810653386  0.7499941169688278  0.7499893776925359  1.0000
  Re  Re1       1.0  4.0412578246672696e-07  0.9999998755567391  7.630560413311029e-08  1.0000
  O   O1        1.0  0.24760523139047325  0.24761146295812167  0.7523913519237643  1.0000
  O   O2        1.0  0.7523903872228246  0.7523919223080298  0.247613553393262  1.0000
  O   O3        1.0  0.7523897284311846  0.24760797894057843  0.24761060597612128  1.0000
  O   O4        1.0  0.24760661860837896  0.7523921459122509  0.7523919850554954  1.0000
  O   O5        1.0  0.24760676954134353  0.7523907645113063  0.24761045571526305  1.0000
  O   O6        1.0  0.7523887092796285  0.24761088986232516  0.7523941046896248  1.0000
