data_image0
_chemical_formula_structural       Ru2ReS6
_chemical_formula_sum              "Ru2 Re1 S6"
_cell_length_a       5.799348249329055
_cell_length_b       5.799347832867949
_cell_length_c       5.799347447996396
_cell_angle_alpha    60.000001324148876
_cell_angle_beta     60.0000035596041
_cell_angle_gamma    60.00000231828412

_space_group_name_H-M_alt    "P 1"
_space_group_IT_number       1

loop_
  _space_group_symop_operation_xyz
  'x, y, z'

loop_
  _atom_site_type_symbol
  _atom_site_label
  _atom_site_symmetry_multiplicity
  _atom_site_fract_x
  _atom_site_fract_y
  _atom_site_fract_z
  _atom_site_occupancy
  Ru  Ru1       1.0  0.25000000730153793  0.2499999460794632  0.24999998802552986  1.0000
  Ru  Ru2       1.0  0.750000098224855  0.750000117004771  0.7500002262379188  1.0000
  Re  Re1       1.0  0.9999999914317541  3.167799720581772e-08  7.811038477924734e-08  1.0000
  S   S1        1.0  0.27348388307778876  0.27348400084734625  0.7265159872433125  1.0000
  S   S2        1.0  0.7265159751121908  0.7265160157758211  0.2734838479976385  1.0000
  S   S3        1.0  0.7265161639870873  0.2734839440861085  0.2734839297360377  1.0000
  S   S4        1.0  0.27348389985082644  0.7265159035877411  0.7265160044101764  1.0000
  S   S5        1.0  0.2734840412172567  0.7265160309308272  0.27348392058880916  1.0000
  S   S6        1.0  0.7265159057676082  0.27348395823807636  0.726516089177331  1.0000
