data_image0
_chemical_formula_structural       Ru2ReSe6
_chemical_formula_sum              "Ru2 Re1 Se6"
_cell_length_a       6.53170541712186
_cell_length_b       6.5317054924244555
_cell_length_c       6.531705420555543
_cell_angle_alpha    60.00000054583393
_cell_angle_beta     59.999999951999435
_cell_angle_gamma    60.000000886880166

_space_group_name_H-M_alt    "P 1"
_space_group_IT_number       1

loop_
  _space_group_symop_operation_xyz
  'x, y, z'

loop_
  _atom_site_type_symbol
  _atom_site_label
  _atom_site_symmetry_multiplicity
  _atom_site_fract_x
  _atom_site_fract_y
  _atom_site_fract_z
  _atom_site_occupancy
  Ru  Ru1       1.0  0.2500000153983005  0.2500000205042579  0.24999998076095692  1.0000
  Ru  Ru2       1.0  0.7500000114111003  0.7499999696340166  0.7500000239860747  1.0000
  Re  Re1       1.0  0.9999999829466328  0.9999999981249232  1.2526209425654219e-08  1.0000
  Se  Se1       1.0  0.2620167548195842  0.2620167561441436  0.7379832477945621  1.0000
  Se  Se2       1.0  0.7379832439004641  0.737983254619974  0.2620167377193182  1.0000
  Se  Se3       1.0  0.7379832387889369  0.2620167542028875  0.2620167511628717  1.0000
  Se  Se4       1.0  0.26201676400297685  0.73798322843508  0.7379832417851697  1.0000
  Se  Se5       1.0  0.2620167581377256  0.7379832517747924  0.26201675877672503  1.0000
  Se  Se6       1.0  0.7379832306003126  0.2620167571142485  0.7379832479756359  1.0000
