data_image0
_chemical_formula_structural       Ru2RhO6
_chemical_formula_sum              "Ru2 Rh1 O6"
_cell_length_a       5.357545698110173
_cell_length_b       5.357546168513684
_cell_length_c       5.357545221208964
_cell_angle_alpha    59.99999663001691
_cell_angle_beta     59.9999991661473
_cell_angle_gamma    59.9999969582839

_space_group_name_H-M_alt    "P 1"
_space_group_IT_number       1

loop_
  _space_group_symop_operation_xyz
  'x, y, z'

loop_
  _atom_site_type_symbol
  _atom_site_label
  _atom_site_symmetry_multiplicity
  _atom_site_fract_x
  _atom_site_fract_y
  _atom_site_fract_z
  _atom_site_occupancy
  Ru  Ru1       1.0  0.24999767703841136  0.25000196300793026  0.2500002355674649  1.0000
  Ru  Ru2       1.0  0.7499993828859084  0.7500001145409588  0.750002004606199  1.0000
  Rh  Rh1       1.0  0.9999999043198421  0.9999999314194453  1.4185921104546703e-07  1.0000
  O   O1        1.0  0.2546901254344816  0.2546894922206389  0.7453103544481955  1.0000
  O   O2        1.0  0.7453113579049074  0.7453088133979492  0.2546892940200792  1.0000
  O   O3        1.0  0.7453103345638948  0.2546903087560197  0.2546891385243221  1.0000
  O   O4        1.0  0.2546898371545694  0.7453100954275077  0.7453100959400455  1.0000
  O   O5        1.0  0.2546903280403218  0.7453101465549733  0.25468939123283946  1.0000
  O   O6        1.0  0.7453109024809135  0.25468928607073876  0.745309360975366  1.0000
