data_image0
_chemical_formula_structural       Ru2RhSe6
_chemical_formula_sum              "Ru2 Rh1 Se6"
_cell_length_a       5.998321346346985
_cell_length_b       5.998321532744651
_cell_length_c       5.998320971337205
_cell_angle_alpha    59.9999951932568
_cell_angle_beta     60.00000099848122
_cell_angle_gamma    59.99999268256383

_space_group_name_H-M_alt    "P 1"
_space_group_IT_number       1

loop_
  _space_group_symop_operation_xyz
  'x, y, z'

loop_
  _atom_site_type_symbol
  _atom_site_label
  _atom_site_symmetry_multiplicity
  _atom_site_fract_x
  _atom_site_fract_y
  _atom_site_fract_z
  _atom_site_occupancy
  Ru  Ru1       1.0  0.24999899289823152  0.2499995500968783  0.25000061557855197  1.0000
  Ru  Ru2       1.0  0.75000079998106  0.7499994874334623  0.7500015380864098  1.0000
  Rh  Rh1       1.0  0.9999998704785524  0.9999999612056047  0.99999962236203  1.0000
  Se  Se1       1.0  0.28248133615312304  0.28248160844371195  0.7175183849559424  1.0000
  Se  Se2       1.0  0.7175186220052303  0.7175186888852804  0.2824810406060545  1.0000
  Se  Se3       1.0  0.717519282848054  0.2824816362140891  0.2824810592867101  1.0000
  Se  Se4       1.0  0.2824806694384472  0.717518632529513  0.7175185202088316  1.0000
  Se  Se5       1.0  0.2824815890570792  0.7175192026584039  0.28248091877643866  1.0000
  Se  Se6       1.0  0.7175188607035755  0.2824812253465646  0.7175183256827967  1.0000
