data_image0
_chemical_formula_structural       Ru2SiS6
_chemical_formula_sum              "Ru2 Si1 S6"
_cell_length_a       5.427191399979705
_cell_length_b       5.427192080558902
_cell_length_c       5.427192258715963
_cell_angle_alpha    60.00000057728996
_cell_angle_beta     59.99999641829661
_cell_angle_gamma    60.00000104982914

_space_group_name_H-M_alt    "P 1"
_space_group_IT_number       1

loop_
  _space_group_symop_operation_xyz
  'x, y, z'

loop_
  _atom_site_type_symbol
  _atom_site_label
  _atom_site_symmetry_multiplicity
  _atom_site_fract_x
  _atom_site_fract_y
  _atom_site_fract_z
  _atom_site_occupancy
  Ru  Ru1       1.0  0.2499992306308732  0.25000032899679947  0.24999983594339378  1.0000
  Ru  Ru2       1.0  0.7500005468580224  0.7499997751519536  0.7499974627979965  1.0000
  Si  Si1       1.0  1.5974491953071196e-07  0.9999999165027609  6.030916979824852e-07  1.0000
  S   S1        1.0  0.2693069490112593  0.2693065751049799  0.7306935507939398  1.0000
  S   S2        1.0  0.7306934759051756  0.7306930867340803  0.26930740055308405  1.0000
  S   S3        1.0  0.7306928699837012  0.26930638114635647  0.2693073786580741  1.0000
  S   S4        1.0  0.2693065174464516  0.730693425120373  0.7306934037987352  1.0000
  S   S5        1.0  0.269306323919602  0.7306930762865318  0.2693075307940072  1.0000
  S   S6        1.0  0.730693999608107  0.26930747694204377  0.7306928468230137  1.0000
