data_image0
_chemical_formula_structural       Ru2SeO6
_chemical_formula_sum              "Ru2 Se1 O6"
_cell_length_a       5.307970972450419
_cell_length_b       5.307971076234421
_cell_length_c       5.307970998322419
_cell_angle_alpha    60.00000210088769
_cell_angle_beta     60.000003325023435
_cell_angle_gamma    60.000002184502215

_space_group_name_H-M_alt    "P 1"
_space_group_IT_number       1

loop_
  _space_group_symop_operation_xyz
  'x, y, z'

loop_
  _atom_site_type_symbol
  _atom_site_label
  _atom_site_symmetry_multiplicity
  _atom_site_fract_x
  _atom_site_fract_y
  _atom_site_fract_z
  _atom_site_occupancy
  Ru  Ru1       1.0  0.2500000228846958  0.24999991012046693  0.2500001845911914  1.0000
  Ru  Ru2       1.0  0.7499987944487768  0.7500002702857561  0.7499989898559984  1.0000
  Se  Se1       1.0  0.9999998038399964  0.9999999815410465  9.22378006929474e-08  1.0000
  O   O1        1.0  0.24283910096785422  0.24283860965134674  0.7571611656729268  1.0000
  O   O2        1.0  0.7571613044856671  0.7571612246495262  0.2428393037533052  1.0000
  O   O3        1.0  0.7571613692182719  0.2428385406044252  0.2428391078627018  1.0000
  O   O4        1.0  0.242839231912688  0.7571612613932804  0.7571611800265697  1.0000
  O   O5        1.0  0.2428390503408078  0.7571611710706044  0.24283868669368588  1.0000
  O   O6        1.0  0.7571613190467176  0.24283907163459711  0.7571613026657722  1.0000
