data_image0
_chemical_formula_structural       Ru2SnO6
_chemical_formula_sum              "Ru2 Sn1 O6"
_cell_length_a       5.4215486702818065
_cell_length_b       5.421549177556873
_cell_length_c       5.421549324699687
_cell_angle_alpha    60.000014709531584
_cell_angle_beta     60.00001084847231
_cell_angle_gamma    60.000010300106986

_space_group_name_H-M_alt    "P 1"
_space_group_IT_number       1

loop_
  _space_group_symop_operation_xyz
  'x, y, z'

loop_
  _atom_site_type_symbol
  _atom_site_label
  _atom_site_symmetry_multiplicity
  _atom_site_fract_x
  _atom_site_fract_y
  _atom_site_fract_z
  _atom_site_occupancy
  Ru  Ru1       1.0  0.25000020634212683  0.2500011272522985  0.250000111494665  1.0000
  Ru  Ru2       1.0  0.750000724667304  0.7499976912574196  0.7499962930727293  1.0000
  Sn  Sn1       1.0  2.4805003325085353e-08  2.2590235774381854e-09  0.9999999274442714  1.0000
  O   O1        1.0  0.2594166531390198  0.25941717826260857  0.7405828812106674  1.0000
  O   O2        1.0  0.7405829697160516  0.7405832644909848  0.2594192031266501  1.0000
  O   O3        1.0  0.7405830661346541  0.2594168284275695  0.25941706613352783  1.0000
  O   O4        1.0  0.2594173306996044  0.7405830111645954  0.740583324398603  1.0000
  O   O5        1.0  0.2594160259645362  0.7405821985010164  0.2594178191202304  1.0000
  O   O6        1.0  0.7405829862440031  0.2594186960586188  0.7405833006553  1.0000
