data_image0
_chemical_formula_structural       Ru2SO6
_chemical_formula_sum              "Ru2 S1 O6"
_cell_length_a       5.091060041080425
_cell_length_b       5.0910601508080875
_cell_length_c       5.091060282171322
_cell_angle_alpha    59.99999930674636
_cell_angle_beta     59.9999993591381
_cell_angle_gamma    59.99999984038204

_space_group_name_H-M_alt    "P 1"
_space_group_IT_number       1

loop_
  _space_group_symop_operation_xyz
  'x, y, z'

loop_
  _atom_site_type_symbol
  _atom_site_label
  _atom_site_symmetry_multiplicity
  _atom_site_fract_x
  _atom_site_fract_y
  _atom_site_fract_z
  _atom_site_occupancy
  Ru  Ru1       1.0  0.2499997400699425  0.25000055304962543  0.24999997902505228  1.0000
  Ru  Ru2       1.0  0.7499996187935641  0.7500006198962024  0.7500006522193303  1.0000
  S   S1        1.0  9.736687590185113e-09  4.8113549758987204e-09  0.9999999829048419  1.0000
  O   O1        1.0  0.22658892765431687  0.22658843881791726  0.7734111355238642  1.0000
  O   O2        1.0  0.773411406356979  0.7734111151069658  0.22658865483449192  1.0000
  O   O3        1.0  0.7734112815222044  0.2265887420043448  0.22658847745511693  1.0000
  O   O4        1.0  0.22658868292321765  0.7734110428655767  0.7734114627469773  1.0000
  O   O5        1.0  0.22658887591362106  0.7734112651069404  0.22658848232890957  1.0000
  O   O6        1.0  0.7734114667809082  0.22658826957252287  0.7734111993853516  1.0000
