data_image0
_chemical_formula_structural       Ru2TaO6
_chemical_formula_sum              "Ru2 Ta1 O6"
_cell_length_a       5.394428227219428
_cell_length_b       5.394428454690832
_cell_length_c       5.394428709268934
_cell_angle_alpha    59.99999679447184
_cell_angle_beta     59.99999777966957
_cell_angle_gamma    59.999999514200724

_space_group_name_H-M_alt    "P 1"
_space_group_IT_number       1

loop_
  _space_group_symop_operation_xyz
  'x, y, z'

loop_
  _atom_site_type_symbol
  _atom_site_label
  _atom_site_symmetry_multiplicity
  _atom_site_fract_x
  _atom_site_fract_y
  _atom_site_fract_z
  _atom_site_occupancy
  Ru  Ru1       1.0  0.24999849109014025  0.25000009381168325  0.25000067716660196  1.0000
  Ru  Ru2       1.0  0.7500013776804451  0.749995636219959  0.7500018041693087  1.0000
  Ta  Ta1       1.0  0.9999999458410134  0.9999998092873565  3.345512501569161e-08  1.0000
  O   O1        1.0  0.257184468226542  0.2571871255122655  0.7428140717363473  1.0000
  O   O2        1.0  0.7428150299678956  0.7428138581986664  0.25718569925208434  1.0000
  O   O3        1.0  0.7428145050631613  0.25718706013761816  0.2571844477872672  1.0000
  O   O4        1.0  0.2571858489882173  0.7428147658875154  0.7428139031561466  1.0000
  O   O5        1.0  0.25718579536255337  0.7428151599860159  0.25718539464939916  1.0000
  O   O6        1.0  0.7428144842707562  0.25718645262256584  0.7428140308010652  1.0000
