data_image0
_chemical_formula_structural       Ru2VSe6
_chemical_formula_sum              "Ru2 V1 Se6"
_cell_length_a       6.242901864766268
_cell_length_b       6.242901813994713
_cell_length_c       6.242902631383648
_cell_angle_alpha    59.99999583167653
_cell_angle_beta     59.999994599641475
_cell_angle_gamma    59.999998719447525

_space_group_name_H-M_alt    "P 1"
_space_group_IT_number       1

loop_
  _space_group_symop_operation_xyz
  'x, y, z'

loop_
  _atom_site_type_symbol
  _atom_site_label
  _atom_site_symmetry_multiplicity
  _atom_site_fract_x
  _atom_site_fract_y
  _atom_site_fract_z
  _atom_site_occupancy
  Ru  Ru1       1.0  0.2499988430760778  0.24999988652644406  0.2500008467100187  1.0000
  Ru  Ru2       1.0  0.7499995404858493  0.7499997203958103  0.7500006981455513  1.0000
  V   V1        1.0  7.95947989699332e-09  0.9999999705727003  0.9999998537556486  1.0000
  Se  Se1       1.0  0.26793233023616964  0.26793226041884594  0.7320678157999627  1.0000
  Se  Se2       1.0  0.732068036264189  0.7320676623564519  0.2679318748594935  1.0000
  Se  Se3       1.0  0.7320679763869133  0.26793252941068285  0.2679321206955474  1.0000
  Se  Se4       1.0  0.2679326989551489  0.732067848506844  0.7320673385429254  1.0000
  Se  Se5       1.0  0.267932435326896  0.7320675372972864  0.2679323140584018  1.0000
  Se  Se6       1.0  0.7320681613086265  0.26793253849996995  0.7320671641988445  1.0000
