data_image0
_chemical_formula_structural       Ru2VO6
_chemical_formula_sum              "Ru2 V1 O6"
_cell_length_a       5.291195607203979
_cell_length_b       5.2911958344796055
_cell_length_c       5.291195645115156
_cell_angle_alpha    59.9999975035355
_cell_angle_beta     59.99999823855987
_cell_angle_gamma    60.000002369080654

_space_group_name_H-M_alt    "P 1"
_space_group_IT_number       1

loop_
  _space_group_symop_operation_xyz
  'x, y, z'

loop_
  _atom_site_type_symbol
  _atom_site_label
  _atom_site_symmetry_multiplicity
  _atom_site_fract_x
  _atom_site_fract_y
  _atom_site_fract_z
  _atom_site_occupancy
  Ru  Ru1       1.0  0.24999667541258486  0.2500004707713204  0.2500006247094437  1.0000
  Ru  Ru2       1.0  0.7499975267366973  0.7499973338399489  0.7500071256254031  1.0000
  V   V1        1.0  0.9999997874578438  0.9999999305594497  3.7912279040477876e-07  1.0000
  O   O1        1.0  0.25128571928080784  0.2512848689346946  0.7487147763082919  1.0000
  O   O2        1.0  0.7487158169498337  0.748714724928144  0.2512826121586298  1.0000
  O   O3        1.0  0.7487160093814665  0.2512866226805922  0.2512829973825181  1.0000
  O   O4        1.0  0.25128523101931727  0.7487146377550085  0.7487149473982363  1.0000
  O   O5        1.0  0.2512868741919159  0.7487157412301029  0.2512830051574883  1.0000
  O   O6        1.0  0.7487163661007916  0.2512857391006078  0.748713470642639  1.0000
