data_image0
_chemical_formula_structural       Ru2VS6
_chemical_formula_sum              "Ru2 V1 S6"
_cell_length_a       5.631182076939068
_cell_length_b       5.631182056769998
_cell_length_c       5.631181988769922
_cell_angle_alpha    59.999997653935985
_cell_angle_beta     59.99999817024115
_cell_angle_gamma    59.99999725719919

_space_group_name_H-M_alt    "P 1"
_space_group_IT_number       1

loop_
  _space_group_symop_operation_xyz
  'x, y, z'

loop_
  _atom_site_type_symbol
  _atom_site_label
  _atom_site_symmetry_multiplicity
  _atom_site_fract_x
  _atom_site_fract_y
  _atom_site_fract_z
  _atom_site_occupancy
  Ru  Ru1       1.0  0.25000004798611275  0.24999987664268178  0.2500000912136514  1.0000
  Ru  Ru2       1.0  0.7499999922141685  0.7499998452465112  0.7500001441833684  1.0000
  V   V1        1.0  0.9999999827249145  4.567361360737968e-08  0.9999999733699525  1.0000
  S   S1        1.0  0.2702963427358199  0.2702963793737836  0.7297036482934784  1.0000
  S   S2        1.0  0.7297035711725592  0.7297037644526002  0.27029637535115053  1.0000
  S   S3        1.0  0.7297036369950394  0.2702963651571314  0.2702962891453532  1.0000
  S   S4        1.0  0.2702962025747461  0.7297038417423392  0.7297036904088979  1.0000
  S   S5        1.0  0.2702964092938484  0.7297036540463414  0.27029615949967434  1.0000
  S   S6        1.0  0.7297038199476334  0.2702962266130346  0.7297036001012084  1.0000
