data_image0
_chemical_formula_structural       Ru2WO6
_chemical_formula_sum              "Ru2 W1 O6"
_cell_length_a       5.4190670499579925
_cell_length_b       5.419066360789688
_cell_length_c       5.4190663226197975
_cell_angle_alpha    60.00000047217827
_cell_angle_beta     59.99999739544807
_cell_angle_gamma    59.99999775409531

_space_group_name_H-M_alt    "P 1"
_space_group_IT_number       1

loop_
  _space_group_symop_operation_xyz
  'x, y, z'

loop_
  _atom_site_type_symbol
  _atom_site_label
  _atom_site_symmetry_multiplicity
  _atom_site_fract_x
  _atom_site_fract_y
  _atom_site_fract_z
  _atom_site_occupancy
  Ru  Ru1       1.0  0.25000192216168693  0.24999861560466735  0.24999903339749194  1.0000
  Ru  Ru2       1.0  0.7499994056139049  0.7500004505689214  0.7499994384119844  1.0000
  W   W1        1.0  0.9999999495917259  3.616105805938672e-08  0.9999999609902024  1.0000
  O   O1        1.0  0.25255922142381854  0.2525589259429827  0.7474413280444877  1.0000
  O   O2        1.0  0.7474406683604149  0.7474411301396666  0.2525593884495055  1.0000
  O   O3        1.0  0.7474407132096624  0.2525586523092238  0.2525597535058758  1.0000
  O   O4        1.0  0.25255911350692195  0.7474416569008235  0.7474402497705736  1.0000
  O   O5        1.0  0.2525593076352929  0.7474410073070362  0.2525588096399554  1.0000
  O   O6        1.0  0.7474396969722938  0.25255950530898724  0.7474420916503404  1.0000
