data_image0
_chemical_formula_structural       Ru2WSe6
_chemical_formula_sum              "Ru2 W1 Se6"
_cell_length_a       6.505567495004692
_cell_length_b       6.505567320235429
_cell_length_c       6.505566996405978
_cell_angle_alpha    59.99999909358583
_cell_angle_beta     59.99999859150375
_cell_angle_gamma    59.9999978873534

_space_group_name_H-M_alt    "P 1"
_space_group_IT_number       1

loop_
  _space_group_symop_operation_xyz
  'x, y, z'

loop_
  _atom_site_type_symbol
  _atom_site_label
  _atom_site_symmetry_multiplicity
  _atom_site_fract_x
  _atom_site_fract_y
  _atom_site_fract_z
  _atom_site_occupancy
  Ru  Ru1       1.0  0.2500000770607836  0.2500000715639098  0.2499997984030703  1.0000
  Ru  Ru2       1.0  0.7500001095573627  0.7500000151350127  0.7500004166012895  1.0000
  W   W1        1.0  0.9999999945490327  3.7652209050104774e-08  0.999999959305058  1.0000
  Se  Se1       1.0  0.2628569357596414  0.26285717726543084  0.7371430371967199  1.0000
  Se  Se2       1.0  0.7371430730228322  0.7371429583813711  0.26285680262806116  1.0000
  Se  Se3       1.0  0.7371428976524909  0.2628570397757933  0.2628570023716585  1.0000
  Se  Se4       1.0  0.2628568945902194  0.737142909492578  0.7371430665808404  1.0000
  Se  Se5       1.0  0.2628570677553004  0.7371428672033131  0.26285695479145726  1.0000
  Se  Se6       1.0  0.7371429332877433  0.2628569295736122  0.7371429799435871  1.0000
