data_image0
_chemical_formula_structural       Ru2ZrS6
_chemical_formula_sum              "Ru2 Zr1 S6"
_cell_length_a       6.138351589269369
_cell_length_b       6.138351478888125
_cell_length_c       6.138351471897441
_cell_angle_alpha    59.99999933436553
_cell_angle_beta     59.999997980957446
_cell_angle_gamma    60.00000021175633

_space_group_name_H-M_alt    "P 1"
_space_group_IT_number       1

loop_
  _space_group_symop_operation_xyz
  'x, y, z'

loop_
  _atom_site_type_symbol
  _atom_site_label
  _atom_site_symmetry_multiplicity
  _atom_site_fract_x
  _atom_site_fract_y
  _atom_site_fract_z
  _atom_site_occupancy
  Ru  Ru1       1.0  0.24999998015720368  0.25000012701906155  0.24999997331529258  1.0000
  Ru  Ru2       1.0  0.7499999136469798  0.7500000777815876  0.7500002527934888  1.0000
  Zr  Zr1       1.0  1.6512841552622843e-08  0.999999956104848  1.6949358900566743e-08  1.0000
  S   S1        1.0  0.27430373161614235  0.2743037189029954  0.7256963391569878  1.0000
  S   S2        1.0  0.7256962845590503  0.7256963163027487  0.2743036531656411  1.0000
  S   S3        1.0  0.725696295451327  0.27430375240485577  0.2743037160164421  1.0000
  S   S4        1.0  0.2743036631719641  0.7256961112107471  0.7256963257131347  1.0000
  S   S5        1.0  0.2743038358339522  0.7256961881010042  0.27430367923386273  1.0000
  S   S6        1.0  0.7256962787694408  0.2743037493382654  0.7256960390687841  1.0000
