data_image0
_chemical_formula_structural       Ru2ZrSe6
_chemical_formula_sum              "Ru2 Zr1 Se6"
_cell_length_a       6.497269519324787
_cell_length_b       6.497269448280274
_cell_length_c       6.497269533272665
_cell_angle_alpha    59.99999899467886
_cell_angle_beta     60.000000309752295
_cell_angle_gamma    60.000000194075064

_space_group_name_H-M_alt    "P 1"
_space_group_IT_number       1

loop_
  _space_group_symop_operation_xyz
  'x, y, z'

loop_
  _atom_site_type_symbol
  _atom_site_label
  _atom_site_symmetry_multiplicity
  _atom_site_fract_x
  _atom_site_fract_y
  _atom_site_fract_z
  _atom_site_occupancy
  Ru  Ru1       1.0  0.24999995270480102  0.25000005319846935  0.24999996949968228  1.0000
  Ru  Ru2       1.0  0.7500000341690658  0.7499999673239025  0.7500000751356012  1.0000
  Zr  Zr1       1.0  2.969201938050326e-08  0.9999999962299704  2.8594923209347413e-08  1.0000
  Se  Se1       1.0  0.27288469535336  0.27288470738432374  0.7271152931145162  1.0000
  Se  Se2       1.0  0.7271153002987447  0.7271153187930934  0.2728846334883442  1.0000
  Se  Se3       1.0  0.7271152886627499  0.2728847586788032  0.27288473972194727  1.0000
  Se  Se4       1.0  0.27288469165980667  0.7271152015230964  0.7271153260363632  1.0000
  Se  Se5       1.0  0.27288473833337445  0.7271152748706535  0.2728846904145321  1.0000
  Se  Se6       1.0  0.7271152745887838  0.2728847154914833  0.7271152423827258  1.0000
