data_image0
_chemical_formula_structural       S2BeCl6
_chemical_formula_sum              "S2 Be1 Cl6"
_cell_length_a       6.429599679305857
_cell_length_b       6.429599682782781
_cell_length_c       6.429599764579609
_cell_angle_alpha    59.99999975668746
_cell_angle_beta     60.00000031113997
_cell_angle_gamma    59.999997741485686

_space_group_name_H-M_alt    "P 1"
_space_group_IT_number       1

loop_
  _space_group_symop_operation_xyz
  'x, y, z'

loop_
  _atom_site_type_symbol
  _atom_site_label
  _atom_site_symmetry_multiplicity
  _atom_site_fract_x
  _atom_site_fract_y
  _atom_site_fract_z
  _atom_site_occupancy
  S   S1        1.0  0.2500002085484331  0.2500000325084031  0.250000009958098  1.0000
  S   S2        1.0  0.749999860878756  0.7499999565660307  0.7500000581384039  1.0000
  Be  Be1       1.0  0.9999999999999999  1.5324476006094457e-17  0.999999981336319  1.0000
  Cl  Cl1       1.0  0.24233422063809998  0.2423341720264345  0.7576657424416533  1.0000
  Cl  Cl2       1.0  0.7576657064761513  0.7576658399062515  0.24233414119902896  1.0000
  Cl  Cl3       1.0  0.7576658052163066  0.2423341251120671  0.24233425849798518  1.0000
  Cl  Cl4       1.0  0.2423342850740297  0.757665774434227  0.7576658066036507  1.0000
  Cl  Cl5       1.0  0.2423341998774381  0.7576658243835651  0.24233417508587204  1.0000
  Cl  Cl6       1.0  0.7576657225368892  0.24233427707726019  0.757665827892606  1.0000
