data_image0
_chemical_formula_structural       S2BeBr6
_chemical_formula_sum              "S2 Be1 Br6"
_cell_length_a       7.009094954132195
_cell_length_b       7.0090947533199115
_cell_length_c       7.009094762846414
_cell_angle_alpha    60.00000101928121
_cell_angle_beta     60.000002056080106
_cell_angle_gamma    60.00000081970075

_space_group_name_H-M_alt    "P 1"
_space_group_IT_number       1

loop_
  _space_group_symop_operation_xyz
  'x, y, z'

loop_
  _atom_site_type_symbol
  _atom_site_label
  _atom_site_symmetry_multiplicity
  _atom_site_fract_x
  _atom_site_fract_y
  _atom_site_fract_z
  _atom_site_occupancy
  S   S1        1.0  0.2500000619406075  0.24999982941332388  0.25000017244716594  1.0000
  S   S2        1.0  0.7499999287338016  0.7499998097551741  0.7500001156080067  1.0000
  Be  Be1       1.0  1.1718466285847424e-07  0.9999999598105996  0.9999999429550386  1.0000
  Br  Br1       1.0  0.2460835701649295  0.2460834180737328  0.7539164653704414  1.0000
  Br  Br2       1.0  0.7539165115948554  0.7539165705678149  0.24608343405282615  1.0000
  Br  Br3       1.0  0.7539164370216834  0.24608364406729444  0.24608348334370483  1.0000
  Br  Br4       1.0  0.246083500109466  0.753916585710658  0.7539164505753091  1.0000
  Br  Br5       1.0  0.2460835002062057  0.7539165084077071  0.24608347073103645  1.0000
  Br  Br6       1.0  0.7539163725923201  0.24608369690713122  0.7539164590774415  1.0000
