data_image0
_chemical_formula_structural       S2BeF6
_chemical_formula_sum              "S2 Be1 F6"
_cell_length_a       2.947812120607646
_cell_length_b       3.507364649846348
_cell_length_c       3.4339859007263396
_cell_angle_alpha    50.50014785284027
_cell_angle_beta     71.74085309137622
_cell_angle_gamma    74.70699954296094

_space_group_name_H-M_alt    "P 1"
_space_group_IT_number       1

loop_
  _space_group_symop_operation_xyz
  'x, y, z'

loop_
  _atom_site_type_symbol
  _atom_site_label
  _atom_site_symmetry_multiplicity
  _atom_site_fract_x
  _atom_site_fract_y
  _atom_site_fract_z
  _atom_site_occupancy
  S   S1        1.0  0.3714413127104291  0.9097234411230333  0.8226595987117278  1.0000
  S   S2        1.0  0.3623906854544734  0.014543835997740928  0.9044729342502495  1.0000
  Be  Be1       1.0  0.4111099097684531  0.288657321725291  0.5586202300787038  1.0000
  F   F1        1.0  0.7991049802018372  0.6449916435820384  0.8588898677643788  1.0000
  F   F2        1.0  0.8077613281094871  0.2650503993039707  0.4721689396198643  1.0000
  F   F3        1.0  0.6883979969692943  0.7531429072160313  0.6110534799816025  1.0000
  F   F4        1.0  0.879830827582029  0.7759570728426886  0.9312668119545866  1.0000
  F   F5        1.0  0.35722205739232626  0.042170512762005924  0.8210163368250181  1.0000
  F   F6        1.0  0.8752763914082048  0.7786401151705672  0.9447956090695859  1.0000
