data_image0
_chemical_formula_structural       S2BeI6
_chemical_formula_sum              "S2 Be1 I6"
_cell_length_a       7.526543786785923
_cell_length_b       7.526543010160899
_cell_length_c       7.5265425241597566
_cell_angle_alpha    59.99999104965744
_cell_angle_beta     59.99999387133758
_cell_angle_gamma    59.99999326234483

_space_group_name_H-M_alt    "P 1"
_space_group_IT_number       1

loop_
  _space_group_symop_operation_xyz
  'x, y, z'

loop_
  _atom_site_type_symbol
  _atom_site_label
  _atom_site_symmetry_multiplicity
  _atom_site_fract_x
  _atom_site_fract_y
  _atom_site_fract_z
  _atom_site_occupancy
  S   S1        1.0  0.25000012249599884  0.2500002343491226  0.24999994835548786  1.0000
  S   S2        1.0  0.7499997872926717  0.7499997787782349  0.750000206681218  1.0000
  Be  Be1       1.0  0.9999999893378922  2.2781277658026485e-08  4.841429750048393e-08  1.0000
  I   I1        1.0  0.24476239289805682  0.2447623618341859  0.7552376610184137  1.0000
  I   I2        1.0  0.7552375531683216  0.7552376529204173  0.24476233821678797  1.0000
  I   I3        1.0  0.7552377263237091  0.2447623853431788  0.24476219137074706  1.0000
  I   I4        1.0  0.24476234492520396  0.7552376082573863  0.7552376482310614  1.0000
  I   I5        1.0  0.2447624662803736  0.7552375164531299  0.24476228336396716  1.0000
  I   I6        1.0  0.7552376104086127  0.24476243321209656  0.7552376844332442  1.0000
