data_image0
_chemical_formula_structural       S2CBr6
_chemical_formula_sum              "S2 C1 Br6"
_cell_length_a       7.114324622743355
_cell_length_b       7.114324921473021
_cell_length_c       7.114324833062772
_cell_angle_alpha    59.9999955590534
_cell_angle_beta     59.99999742929615
_cell_angle_gamma    59.99999858445437

_space_group_name_H-M_alt    "P 1"
_space_group_IT_number       1

loop_
  _space_group_symop_operation_xyz
  'x, y, z'

loop_
  _atom_site_type_symbol
  _atom_site_label
  _atom_site_symmetry_multiplicity
  _atom_site_fract_x
  _atom_site_fract_y
  _atom_site_fract_z
  _atom_site_occupancy
  S   S1        1.0  0.2500001626400125  0.24999998638762275  0.24999999110589738  1.0000
  S   S2        1.0  0.7499995600195867  0.7499999333400811  0.7500002182528877  1.0000
  C   C1        1.0  0.9999999925400822  2.2379752778537224e-08  1.0813073655361644e-08  1.0000
  Br  Br1       1.0  0.23018697618354608  0.23018682322402848  0.7698130422688  1.0000
  Br  Br2       1.0  0.7698131474038004  0.7698132084024489  0.23018685866896962  1.0000
  Br  Br3       1.0  0.7698131393410613  0.2301868621170682  0.23018685268567654  1.0000
  Br  Br4       1.0  0.23018698644318905  0.7698131677878883  0.7698130761266968  1.0000
  Br  Br5       1.0  0.23018693801167486  0.7698131442974862  0.23018676945026934  1.0000
  Br  Br6       1.0  0.7698131059639619  0.23018686322771795  0.769813174910305  1.0000
