data_image0
_chemical_formula_structural       S2CF6
_chemical_formula_sum              "S2 C1 F6"
_cell_length_a       9.559421890437056
_cell_length_b       5.544249373374109
_cell_length_c       9.914484428359659
_cell_angle_alpha    32.20949835457071
_cell_angle_beta     35.78301368202899
_cell_angle_gamma    51.426601023078575

_space_group_name_H-M_alt    "P 1"
_space_group_IT_number       1

loop_
  _space_group_symop_operation_xyz
  'x, y, z'

loop_
  _atom_site_type_symbol
  _atom_site_label
  _atom_site_symmetry_multiplicity
  _atom_site_fract_x
  _atom_site_fract_y
  _atom_site_fract_z
  _atom_site_occupancy
  S   S1        1.0  0.9941042204084815  0.40135143184313726  0.5260972920833192  1.0000
  S   S2        1.0  0.5132696246796241  0.09394991750455395  0.4942889933197724  1.0000
  C   C1        1.0  0.027547992514164104  0.4569050418737224  0.6617562577992278  1.0000
  F   F1        1.0  0.8626702540974385  0.07674729930395989  0.6547311804934611  1.0000
  F   F2        1.0  0.9342836376042086  0.3257225767261466  0.5253929207919994  1.0000
  F   F3        1.0  0.02694432499993127  0.9167992298291332  0.7731325075979841  1.0000
  F   F4        1.0  0.458072663347372  0.47694510480036095  0.07880001667071301  1.0000
  F   F5        1.0  0.8717772127866092  0.12795878200473304  0.6368308297321315  1.0000
  F   F6        1.0  0.8993699545954793  0.21406496563166377  0.5907063110935782  1.0000
