data_image0
_chemical_formula_structural       S2CI6
_chemical_formula_sum              "S2 C1 I6"
_cell_length_a       7.4249857313732965
_cell_length_b       7.424985391423578
_cell_length_c       7.424986152331513
_cell_angle_alpha    60.000004276035796
_cell_angle_beta     60.00000775179701
_cell_angle_gamma    60.00000433828637

_space_group_name_H-M_alt    "P 1"
_space_group_IT_number       1

loop_
  _space_group_symop_operation_xyz
  'x, y, z'

loop_
  _atom_site_type_symbol
  _atom_site_label
  _atom_site_symmetry_multiplicity
  _atom_site_fract_x
  _atom_site_fract_y
  _atom_site_fract_z
  _atom_site_occupancy
  S   S1        1.0  0.2499999284890635  0.250000086738759  0.25000032995362426  1.0000
  S   S2        1.0  0.750000034540294  0.7499995129967219  0.7500005278216364  1.0000
  C   C1        1.0  0.9999999555312854  0.999999858143769  3.8945931026598124e-07  1.0000
  I   I1        1.0  0.2577778269348949  0.25777814615313394  0.7422219431280805  1.0000
  I   I2        1.0  0.7422221501712378  0.7422222651319897  0.25777772472819266  1.0000
  I   I3        1.0  0.7422221632071925  0.25777787089575843  0.25777770622285917  1.0000
  I   I4        1.0  0.2577782278347166  0.7422217651284918  0.7422220130027772  1.0000
  I   I5        1.0  0.2577779261382526  0.7422221233339032  0.257777890684837  1.0000
  I   I6        1.0  0.7422217599947651  0.2577784050650711  0.7422214573662886  1.0000
