data_image0
_chemical_formula_structural       S2CO6
_chemical_formula_sum              "S2 C1 O6"
_cell_length_a       5.039809528606865
_cell_length_b       3.983077624901203
_cell_length_c       3.0104372505478243
_cell_angle_alpha    62.44578132389903
_cell_angle_beta     46.959946942450564
_cell_angle_gamma    26.018075843505034

_space_group_name_H-M_alt    "P 1"
_space_group_IT_number       1

loop_
  _space_group_symop_operation_xyz
  'x, y, z'

loop_
  _atom_site_type_symbol
  _atom_site_label
  _atom_site_symmetry_multiplicity
  _atom_site_fract_x
  _atom_site_fract_y
  _atom_site_fract_z
  _atom_site_occupancy
  S   S1        1.0  0.10292541552471667  0.15449255397508582  0.421440562290293  1.0000
  S   S2        1.0  0.7378753252485294  0.21899826925986066  0.7110637299481952  1.0000
  C   C1        1.0  0.4678039216036084  0.3670769339196579  0.7412852763787217  1.0000
  O   O1        1.0  0.09400167850828345  0.1512085172482349  0.5228349877932084  1.0000
  O   O2        1.0  0.5749197883786141  0.059258543520916085  0.8241016014224624  1.0000
  O   O3        1.0  0.9806682872033665  0.26653212031002854  0.53638821296208  1.0000
  O   O4        1.0  0.16219032510699505  0.9974900754395865  0.4263653749971843  1.0000
  O   O5        1.0  0.15701441311747855  0.03729722591095119  0.9896709890470788  1.0000
  O   O6        1.0  0.5240795863540391  0.17793073594799558  0.8192622869388126  1.0000
