data_image0
_chemical_formula_structural       S2PO6
_chemical_formula_sum              "S2 P1 O6"
_cell_length_a       4.153852557082662
_cell_length_b       3.449068206266544
_cell_length_c       2.4235187380207726
_cell_angle_alpha    51.32634237234538
_cell_angle_beta     74.896743222516
_cell_angle_gamma    48.28380269999903

_space_group_name_H-M_alt    "P 1"
_space_group_IT_number       1

loop_
  _space_group_symop_operation_xyz
  'x, y, z'

loop_
  _atom_site_type_symbol
  _atom_site_label
  _atom_site_symmetry_multiplicity
  _atom_site_fract_x
  _atom_site_fract_y
  _atom_site_fract_z
  _atom_site_occupancy
  S   S1        1.0  0.24636207578102942  0.07661469029802792  0.5100999641237494  1.0000
  S   S2        1.0  0.4585790178853957  0.05002349172508818  0.7103359029426927  1.0000
  P   P1        1.0  0.08509038705848386  0.18555982339603477  0.8352655267465856  1.0000
  O   O1        1.0  0.6607842232342743  0.1779621607472236  0.7028846946004464  1.0000
  O   O2        1.0  0.5671000406695648  0.5219591041741907  0.7935903929186415  1.0000
  O   O3        1.0  0.6787364498846762  0.9857529256880814  0.8183954199983452  1.0000
  O   O4        1.0  0.5690610087259562  0.3754384790596081  0.4758507438433893  1.0000
  O   O5        1.0  0.5235171605651276  0.4478061310109056  0.7758977809139195  1.0000
  O   O6        1.0  0.45870889518399016  0.8764408662972414  0.11438221586716223  1.0000
