data_image0
_chemical_formula_structural       Sc2AuCl6
_chemical_formula_sum              "Sc2 Au1 Cl6"
_cell_length_a       6.82836298728224
_cell_length_b       6.82836331125557
_cell_length_c       6.828363067053805
_cell_angle_alpha    60.00000155769983
_cell_angle_beta     60.00000082688298
_cell_angle_gamma    60.00000091395952

_space_group_name_H-M_alt    "P 1"
_space_group_IT_number       1

loop_
  _space_group_symop_operation_xyz
  'x, y, z'

loop_
  _atom_site_type_symbol
  _atom_site_label
  _atom_site_symmetry_multiplicity
  _atom_site_fract_x
  _atom_site_fract_y
  _atom_site_fract_z
  _atom_site_occupancy
  Sc  Sc1       1.0  0.2500002698643433  0.24999966909499935  0.2500002365668595  1.0000
  Sc  Sc2       1.0  0.7499998970457105  0.750000187483061  0.7499998363128865  1.0000
  Au  Au1       1.0  0.9999999868820282  0.9999999784766314  0.9999999938889927  1.0000
  Cl  Cl1       1.0  0.2579750140721295  0.25797491281104873  0.7420249756488138  1.0000
  Cl  Cl2       1.0  0.7420248623518867  0.7420251607943162  0.25797503876910743  1.0000
  Cl  Cl3       1.0  0.7420250091926697  0.25797495699936895  0.2579749664818499  1.0000
  Cl  Cl4       1.0  0.2579749321559522  0.7420251704144174  0.7420249168100469  1.0000
  Cl  Cl5       1.0  0.25797493383850184  0.7420250055652824  0.25797498120142864  1.0000
  Cl  Cl6       1.0  0.7420250873669298  0.2579749837402201  0.7420250322653139  1.0000
