data_image0
_chemical_formula_structural       Sc2AgI6
_chemical_formula_sum              "Sc2 Ag1 I6"
_cell_length_a       7.644879880968392
_cell_length_b       7.644879791904935
_cell_length_c       7.644879882962562
_cell_angle_alpha    59.99999978702834
_cell_angle_beta     59.99999950861701
_cell_angle_gamma    60.0000002304894

_space_group_name_H-M_alt    "P 1"
_space_group_IT_number       1

loop_
  _space_group_symop_operation_xyz
  'x, y, z'

loop_
  _atom_site_type_symbol
  _atom_site_label
  _atom_site_symmetry_multiplicity
  _atom_site_fract_x
  _atom_site_fract_y
  _atom_site_fract_z
  _atom_site_occupancy
  Sc  Sc1       1.0  0.24999996723630405  0.24999996979531386  0.250000062113937  1.0000
  Sc  Sc2       1.0  0.7500000440552016  0.7499998901613911  0.7500001025438355  1.0000
  Ag  Ag1       1.0  0.9999999904950669  0.999999996795908  0.9999999867335372  1.0000
  I   I1        1.0  0.2585873768623687  0.25858744434324665  0.7414125701071251  1.0000
  I   I2        1.0  0.7414126118459929  0.7414125966446502  0.25858736359108087  1.0000
  I   I3        1.0  0.7414125683248846  0.25858744515270893  0.25858737210935157  1.0000
  I   I4        1.0  0.25858738686357513  0.7414126374883825  0.7414125666786635  1.0000
  I   I5        1.0  0.25858744157279945  0.7414125891573753  0.25858740122296325  1.0000
  I   I6        1.0  0.7414126180495588  0.258587429401879  0.7414125723277517  1.0000
