data_image0
_chemical_formula_structural       Sc2AuBr6
_chemical_formula_sum              "Sc2 Au1 Br6"
_cell_length_a       7.093032515709225
_cell_length_b       7.093032347703945
_cell_length_c       7.093032591055999
_cell_angle_alpha    59.99999891368761
_cell_angle_beta     59.99999901360176
_cell_angle_gamma    59.99999875948432

_space_group_name_H-M_alt    "P 1"
_space_group_IT_number       1

loop_
  _space_group_symop_operation_xyz
  'x, y, z'

loop_
  _atom_site_type_symbol
  _atom_site_label
  _atom_site_symmetry_multiplicity
  _atom_site_fract_x
  _atom_site_fract_y
  _atom_site_fract_z
  _atom_site_occupancy
  Sc  Sc1       1.0  0.2499998897356405  0.2500000193802055  0.25000007457115136  1.0000
  Sc  Sc2       1.0  0.7499999970146356  0.7500000270602442  0.7499999597433763  1.0000
  Au  Au1       1.0  2.011079873702289e-08  0.9999999982733127  0.9999999865784416  1.0000
  Br  Br1       1.0  0.2571418615965094  0.25714189133810633  0.7428581166049039  1.0000
  Br  Br2       1.0  0.7428581696959284  0.7428580877615383  0.2571418791089448  1.0000
  Br  Br3       1.0  0.7428581314394305  0.2571418553103378  0.2571419098154649  1.0000
  Br  Br4       1.0  0.2571418856614486  0.7428581565963657  0.742858070951297  1.0000
  Br  Br5       1.0  0.2571419030606184  0.7428581137227445  0.25714188039005675  1.0000
  Br  Br6       1.0  0.7428581447086849  0.2571418550167763  0.7428581263637632  1.0000
