data_image0
_chemical_formula_structural       Sc2AgCl6
_chemical_formula_sum              "Sc2 Ag1 Cl6"
_cell_length_a       6.7188712626570295
_cell_length_b       6.718871276569834
_cell_length_c       6.718871248732205
_cell_angle_alpha    60.00000004423105
_cell_angle_beta     60.000000461726465
_cell_angle_gamma    59.99999916020107

_space_group_name_H-M_alt    "P 1"
_space_group_IT_number       1

loop_
  _space_group_symop_operation_xyz
  'x, y, z'

loop_
  _atom_site_type_symbol
  _atom_site_label
  _atom_site_symmetry_multiplicity
  _atom_site_fract_x
  _atom_site_fract_y
  _atom_site_fract_z
  _atom_site_occupancy
  Sc  Sc1       1.0  0.24999962943689308  0.25000023632320684  0.2500002992194407  1.0000
  Sc  Sc2       1.0  0.7500002596053614  0.7499999050957613  0.7499993979698593  1.0000
  Ag  Ag1       1.0  4.131163619559848e-09  2.3696961552712468e-08  0.9999999399472351  1.0000
  Cl  Cl1       1.0  0.26105366741645514  0.26105379563145525  0.7389463049775743  1.0000
  Cl  Cl2       1.0  0.7389463445693436  0.7389461470976025  0.26105395844746715  1.0000
  Cl  Cl3       1.0  0.7389462598908146  0.26105365972130967  0.261053778868707  1.0000
  Cl  Cl4       1.0  0.26105376785718415  0.738946297590494  0.7389462744106359  1.0000
  Cl  Cl5       1.0  0.26105358245351923  0.7389461675586647  0.2610539407957247  1.0000
  Cl  Cl6       1.0  0.7389464944397001  0.2610537660561768  0.7389461057128702  1.0000
