data_image0
_chemical_formula_structural       Sc2AgF6
_chemical_formula_sum              "Sc2 Ag1 F6"
_cell_length_a       5.463753941882575
_cell_length_b       5.463753962716412
_cell_length_c       5.463754108167935
_cell_angle_alpha    60.00000029968086
_cell_angle_beta     60.0000001471544
_cell_angle_gamma    59.999999723610706

_space_group_name_H-M_alt    "P 1"
_space_group_IT_number       1

loop_
  _space_group_symop_operation_xyz
  'x, y, z'

loop_
  _atom_site_type_symbol
  _atom_site_label
  _atom_site_symmetry_multiplicity
  _atom_site_fract_x
  _atom_site_fract_y
  _atom_site_fract_z
  _atom_site_occupancy
  Sc  Sc1       1.0  0.24999987884211605  0.24999992250352723  0.24999995290995458  1.0000
  Sc  Sc2       1.0  0.7500001371417555  0.7499997809600695  0.7499999201597755  1.0000
  Ag  Ag1       1.0  0.9999999741266092  2.6898975232195805e-08  0.9999999464101487  1.0000
  F   F1        1.0  0.27054713103708894  0.2705472764955239  0.7294527866997318  1.0000
  F   F2        1.0  0.7294527746367236  0.729452929082287  0.2705472382141735  1.0000
  F   F3        1.0  0.7294530476446829  0.27054718433117436  0.27054718987430476  1.0000
  F   F4        1.0  0.2705470097459086  0.7294529338249656  0.7294528394969158  1.0000
  F   F5        1.0  0.2705471674983886  0.7294527615671058  0.27054716571764087  1.0000
  F   F6        1.0  0.7294528328748489  0.2705472803752697  0.7294528625501312  1.0000
