data_image0
_chemical_formula_structural       Sc2AgBr6
_chemical_formula_sum              "Sc2 Ag1 Br6"
_cell_length_a       7.06732793720451
_cell_length_b       7.067327919596894
_cell_length_c       7.067327854775702
_cell_angle_alpha    60.000000606753346
_cell_angle_beta     60.000000732643365
_cell_angle_gamma    60.00000000708996

_space_group_name_H-M_alt    "P 1"
_space_group_IT_number       1

loop_
  _space_group_symop_operation_xyz
  'x, y, z'

loop_
  _atom_site_type_symbol
  _atom_site_label
  _atom_site_symmetry_multiplicity
  _atom_site_fract_x
  _atom_site_fract_y
  _atom_site_fract_z
  _atom_site_occupancy
  Sc  Sc1       1.0  0.24999998076140184  0.24999999709287574  0.25000009615363944  1.0000
  Sc  Sc2       1.0  0.750000035677391  0.7500000346028102  0.7499998210829646  1.0000
  Ag  Ag1       1.0  0.9999999930681304  2.0795608383085338e-08  0.9999999647688916  1.0000
  Br  Br1       1.0  0.2600224979134867  0.2600225542320046  0.7399774632094764  1.0000
  Br  Br2       1.0  0.7399774769200028  0.7399774601340081  0.26002258254195226  1.0000
  Br  Br3       1.0  0.7399774327356243  0.26002250487892037  0.2600225585600986  1.0000
  Br  Br4       1.0  0.2600225471155519  0.7399774748277448  0.7399774708829975  1.0000
  Br  Br5       1.0  0.260022499767365  0.7399774304820872  0.26002257906449366  1.0000
  Br  Br6       1.0  0.7399775438212507  0.26002251976413254  0.7399774587094207  1.0000
