data_image0
_chemical_formula_structural       Sc2BeCl6
_chemical_formula_sum              "Sc2 Be1 Cl6"
_cell_length_a       6.46008711091386
_cell_length_b       6.460086998914021
_cell_length_c       6.460086706222596
_cell_angle_alpha    60.00000285132596
_cell_angle_beta     60.0000029632087
_cell_angle_gamma    60.00000313401633

_space_group_name_H-M_alt    "P 1"
_space_group_IT_number       1

loop_
  _space_group_symop_operation_xyz
  'x, y, z'

loop_
  _atom_site_type_symbol
  _atom_site_label
  _atom_site_symmetry_multiplicity
  _atom_site_fract_x
  _atom_site_fract_y
  _atom_site_fract_z
  _atom_site_occupancy
  Sc  Sc1       1.0  0.25000006888336684  0.24999969379874748  0.25000021065023165  1.0000
  Sc  Sc2       1.0  0.749999935931637  0.7500003118121641  0.7499997326029632  1.0000
  Be  Be1       1.0  0.9999999661471046  0.9999999943124059  0.9999999702353056  1.0000
  Cl  Cl1       1.0  0.24125914388477693  0.24125915473851775  0.7587407965409397  1.0000
  Cl  Cl2       1.0  0.758740937718839  0.7587407921006026  0.24125921665015324  1.0000
  Cl  Cl3       1.0  0.7587408405414435  0.2412590978855396  0.24125920526818748  1.0000
  Cl  Cl4       1.0  0.24125919884823435  0.7587409380592025  0.7587408107925008  1.0000
  Cl  Cl5       1.0  0.2412590387738032  0.7587409110123272  0.24125918436634186  1.0000
  Cl  Cl6       1.0  0.7587408682556415  0.24125909839031218  0.7587408894739774  1.0000
