data_image0
_chemical_formula_structural       Sc2BeBr6
_chemical_formula_sum              "Sc2 Be1 Br6"
_cell_length_a       6.831895668185859
_cell_length_b       6.8318958699454875
_cell_length_c       6.83189588964133
_cell_angle_alpha    59.99999874607006
_cell_angle_beta     59.999997938270965
_cell_angle_gamma    59.9999972164172

_space_group_name_H-M_alt    "P 1"
_space_group_IT_number       1

loop_
  _space_group_symop_operation_xyz
  'x, y, z'

loop_
  _atom_site_type_symbol
  _atom_site_label
  _atom_site_symmetry_multiplicity
  _atom_site_fract_x
  _atom_site_fract_y
  _atom_site_fract_z
  _atom_site_occupancy
  Sc  Sc1       1.0  0.25000003648809294  0.25000001000830974  0.24999999687106442  1.0000
  Sc  Sc2       1.0  0.7500000223609128  0.7500000479517979  0.7500000881415116  1.0000
  Be  Be1       1.0  8.67344824814676e-09  0.999999958768205  6.458201745361314e-08  1.0000
  Br  Br1       1.0  0.24313198072683992  0.2431320326863549  0.7568679923264341  1.0000
  Br  Br2       1.0  0.7568679422267656  0.756868001968831  0.24313196736514892  1.0000
  Br  Br3       1.0  0.7568680167253283  0.24313201811093835  0.24313197241319975  1.0000
  Br  Br4       1.0  0.24313199732711885  0.7568679663490172  0.7568679756089126  1.0000
  Br  Br5       1.0  0.2431320455696461  0.756867989102364  0.2431319645201259  1.0000
  Br  Br6       1.0  0.7568679542790139  0.24313197205266476  0.7568679846916733  1.0000
