data_image0
_chemical_formula_structural       Sc2BeI6
_chemical_formula_sum              "Sc2 Be1 I6"
_cell_length_a       7.552424193511827
_cell_length_b       7.552424095508865
_cell_length_c       7.55242412523385
_cell_angle_alpha    59.999999601468936
_cell_angle_beta     59.99999930082551
_cell_angle_gamma    59.999997400013775

_space_group_name_H-M_alt    "P 1"
_space_group_IT_number       1

loop_
  _space_group_symop_operation_xyz
  'x, y, z'

loop_
  _atom_site_type_symbol
  _atom_site_label
  _atom_site_symmetry_multiplicity
  _atom_site_fract_x
  _atom_site_fract_y
  _atom_site_fract_z
  _atom_site_occupancy
  Sc  Sc1       1.0  0.24999998664911272  0.24999995188897878  0.24999997238014796  1.0000
  Sc  Sc2       1.0  0.750000001026606  0.7499998929650693  0.7500001546840829  1.0000
  Be  Be1       1.0  0.9999999989957257  2.594652785843958e-08  0.9999999928251859  1.0000
  I   I1        1.0  0.24461722881046127  0.24461736788501284  0.7553827343678737  1.0000
  I   I2        1.0  0.755382748592022  0.7553826683246782  0.24461724654386954  1.0000
  I   I3        1.0  0.7553826992290196  0.2446173005790544  0.24461728190681814  1.0000
  I   I4        1.0  0.24461731854260668  0.7553827567121895  0.7553826616591859  1.0000
  I   I5        1.0  0.244617306724266  0.7553827433659853  0.24461727282399542  1.0000
  I   I6        1.0  0.7553827119588901  0.24461729284370462  0.7553826861233335  1.0000
