data_image0
_chemical_formula_structural       Sc2CrF6
_chemical_formula_sum              "Sc2 Cr1 F6"
_cell_length_a       5.347582347079288
_cell_length_b       5.347582261632203
_cell_length_c       5.347583019575821
_cell_angle_alpha    59.999997931779255
_cell_angle_beta     59.99999933572997
_cell_angle_gamma    60.00000155332657

_space_group_name_H-M_alt    "P 1"
_space_group_IT_number       1

loop_
  _space_group_symop_operation_xyz
  'x, y, z'

loop_
  _atom_site_type_symbol
  _atom_site_label
  _atom_site_symmetry_multiplicity
  _atom_site_fract_x
  _atom_site_fract_y
  _atom_site_fract_z
  _atom_site_occupancy
  Sc  Sc1       1.0  0.2500000515536609  0.2499998211516075  0.24999997239242844  1.0000
  Sc  Sc2       1.0  0.749999856666795  0.7500001436673215  0.7500000776288297  1.0000
  Cr  Cr1       1.0  4.879183597297374e-08  0.9999999702263894  0.9999999325207735  1.0000
  F   F1        1.0  0.24943238360493622  0.2494324313803275  0.7505676957462427  1.0000
  F   F2        1.0  0.7505675894579258  0.7505676433719395  0.2494323940473986  1.0000
  F   F3        1.0  0.7505675996052967  0.2494324555280295  0.24943223702520304  1.0000
  F   F4        1.0  0.24943250297413816  0.7505674703561827  0.750567682923825  1.0000
  F   F5        1.0  0.24943247345948322  0.7505677002785833  0.24943226790766282  1.0000
  F   F6        1.0  0.7505675408919378  0.24943236073201647  0.7505676977823152  1.0000
