data_image0
_chemical_formula_structural       Sc2CrCl6
_chemical_formula_sum              "Sc2 Cr1 Cl6"
_cell_length_a       6.741723490599276
_cell_length_b       6.741723555889958
_cell_length_c       6.7417236850930005
_cell_angle_alpha    59.99999907895446
_cell_angle_beta     60.000001044387226
_cell_angle_gamma    60.00000054204502

_space_group_name_H-M_alt    "P 1"
_space_group_IT_number       1

loop_
  _space_group_symop_operation_xyz
  'x, y, z'

loop_
  _atom_site_type_symbol
  _atom_site_label
  _atom_site_symmetry_multiplicity
  _atom_site_fract_x
  _atom_site_fract_y
  _atom_site_fract_z
  _atom_site_occupancy
  Sc  Sc1       1.0  0.2499996854256813  0.2500003076490989  0.2499997571243605  1.0000
  Sc  Sc2       1.0  0.7500001306519075  0.7499997602821127  0.7500003330621885  1.0000
  Cr  Cr1       1.0  3.09337115458968e-08  0.9999999945500078  0.9999999397925349  1.0000
  Cl  Cl1       1.0  0.2412755069374551  0.24127562814304082  0.7587245045404687  1.0000
  Cl  Cl2       1.0  0.7587245893780366  0.7587243544049492  0.24127542888673678  1.0000
  Cl  Cl3       1.0  0.7587244624933897  0.24127566937604558  0.24127552873051009  1.0000
  Cl  Cl4       1.0  0.24127551069280706  0.7587243331552509  0.7587244933521924  1.0000
  Cl  Cl5       1.0  0.2412756053586241  0.7587244186805909  0.2412755410741423  1.0000
  Cl  Cl6       1.0  0.7587244719442839  0.24127551300079664  0.758724491074564  1.0000
