data_image0
_chemical_formula_structural       Sc2CoI6
_chemical_formula_sum              "Sc2 Co1 I6"
_cell_length_a       7.560191109744104
_cell_length_b       7.56019124095046
_cell_length_c       7.5601911175695315
_cell_angle_alpha    60.000000404164425
_cell_angle_beta     60.00000033487063
_cell_angle_gamma    60.00000028761136

_space_group_name_H-M_alt    "P 1"
_space_group_IT_number       1

loop_
  _space_group_symop_operation_xyz
  'x, y, z'

loop_
  _atom_site_type_symbol
  _atom_site_label
  _atom_site_symmetry_multiplicity
  _atom_site_fract_x
  _atom_site_fract_y
  _atom_site_fract_z
  _atom_site_occupancy
  Sc  Sc1       1.0  0.2499999937342196  0.25000003455926884  0.2500000049730656  1.0000
  Sc  Sc2       1.0  0.750000005211422  0.7499999125187609  0.7500001223032603  1.0000
  Co  Co1       1.0  1.1400800425049803e-08  1.6199919101545493e-08  0.9999999742951793  1.0000
  I   I1        1.0  0.2467804099572262  0.24678043040040346  0.753219583223442  1.0000
  I   I2        1.0  0.7532195746705379  0.7532195733773437  0.2467803972037647  1.0000
  I   I3        1.0  0.7532195949604935  0.24678045072562652  0.24678036354839647  1.0000
  I   I4        1.0  0.24678039639339305  0.7532195741120155  0.7532195897586228  1.0000
  I   I5        1.0  0.2467804118953809  0.753219572357417  0.24678040688286904  1.0000
  I   I6        1.0  0.7532196011192553  0.24678043790029752  0.7532195574336361  1.0000
