data_image0
_chemical_formula_structural       Sc2CoCl6
_chemical_formula_sum              "Sc2 Co1 Cl6"
_cell_length_a       6.550599299055621
_cell_length_b       6.550599099037473
_cell_length_c       6.550599160435497
_cell_angle_alpha    59.999999185103846
_cell_angle_beta     59.999999948945735
_cell_angle_gamma    59.99999905955513

_space_group_name_H-M_alt    "P 1"
_space_group_IT_number       1

loop_
  _space_group_symop_operation_xyz
  'x, y, z'

loop_
  _atom_site_type_symbol
  _atom_site_label
  _atom_site_symmetry_multiplicity
  _atom_site_fract_x
  _atom_site_fract_y
  _atom_site_fract_z
  _atom_site_occupancy
  Sc  Sc1       1.0  0.25000029732949824  0.25000005190388475  0.24999991151869586  1.0000
  Sc  Sc2       1.0  0.749999972400496  0.7499995405907138  0.7500004072627339  1.0000
  Co  Co1       1.0  0.9999999778847629  5.048105002473131e-08  0.9999999232273991  1.0000
  Cl  Cl1       1.0  0.24546920582808854  0.2454694080237079  0.7545306601461763  1.0000
  Cl  Cl2       1.0  0.7545306953025699  0.7545306874117216  0.24546928309576754  1.0000
  Cl  Cl3       1.0  0.7545305411413152  0.24546950212917093  0.24546911885251302  1.0000
  Cl  Cl4       1.0  0.24546922829696524  0.7545307821427785  0.7545307164353081  1.0000
  Cl  Cl5       1.0  0.24546936785555418  0.7545306976066338  0.24546917892653225  1.0000
  Cl  Cl6       1.0  0.7545306927069214  0.24546929499702722  0.7545307940253475  1.0000
