data_image0
_chemical_formula_structural       Sc2CuF6
_chemical_formula_sum              "Sc2 Cu1 F6"
_cell_length_a       5.218337644199563
_cell_length_b       5.218337777887964
_cell_length_c       5.218337497729315
_cell_angle_alpha    59.999999641396045
_cell_angle_beta     60.00000086866595
_cell_angle_gamma    59.99999986054683

_space_group_name_H-M_alt    "P 1"
_space_group_IT_number       1

loop_
  _space_group_symop_operation_xyz
  'x, y, z'

loop_
  _atom_site_type_symbol
  _atom_site_label
  _atom_site_symmetry_multiplicity
  _atom_site_fract_x
  _atom_site_fract_y
  _atom_site_fract_z
  _atom_site_occupancy
  Sc  Sc1       1.0  0.24999997627206338  0.25000006297398214  0.24999984997144764  1.0000
  Sc  Sc2       1.0  0.7500000407781205  0.7499999260577221  0.7499999990477255  1.0000
  Cu  Cu1       1.0  1.392475466127805e-08  4.694003702346906e-09  0.9999999926069398  1.0000
  F   F1        1.0  0.2597838950789169  0.25978396026404244  0.7402161221122998  1.0000
  F   F2        1.0  0.7402161418862405  0.7402160287676565  0.2597839315771322  1.0000
  F   F3        1.0  0.7402160559599698  0.2597838880391613  0.259783954990504  1.0000
  F   F4        1.0  0.25978390601627366  0.7402161268095602  0.7402160792095334  1.0000
  F   F5        1.0  0.2597839434819144  0.740216114856412  0.259783890287811  1.0000
  F   F6        1.0  0.7402160417840615  0.25978391642132315  0.7402161068059807  1.0000
