data_image0
_chemical_formula_structural       Sc2CBr6
_chemical_formula_sum              "Sc2 C1 Br6"
_cell_length_a       7.053397318822705
_cell_length_b       7.053397414844898
_cell_length_c       7.053397298773222
_cell_angle_alpha    60.000000502511504
_cell_angle_beta     60.00000017104063
_cell_angle_gamma    59.99999785951464

_space_group_name_H-M_alt    "P 1"
_space_group_IT_number       1

loop_
  _space_group_symop_operation_xyz
  'x, y, z'

loop_
  _atom_site_type_symbol
  _atom_site_label
  _atom_site_symmetry_multiplicity
  _atom_site_fract_x
  _atom_site_fract_y
  _atom_site_fract_z
  _atom_site_occupancy
  Sc  Sc1       1.0  0.2500002330640298  0.24999963368819972  0.24999996753431794  1.0000
  Sc  Sc2       1.0  0.7500002929449483  0.7500000019358722  0.7499998856281561  1.0000
  C   C1        1.0  0.9999999505895554  1.5627511561193516e-08  0.9999999318260754  1.0000
  Br  Br1       1.0  0.25485522864180477  0.25485522380500797  0.7451448378172795  1.0000
  Br  Br2       1.0  0.7451446122627381  0.7451449692002748  0.25485522523572757  1.0000
  Br  Br3       1.0  0.7451448123595499  0.2548552318623944  0.25485524365101214  1.0000
  Br  Br4       1.0  0.25485510297708025  0.7451448066041763  0.7451447247684383  1.0000
  Br  Br5       1.0  0.2548550210627139  0.7451448694895151  0.2548553696669142  1.0000
  Br  Br6       1.0  0.7451447569063367  0.2548552471146094  0.745144795662818  1.0000
