data_image0
_chemical_formula_structural       Sc2CoBr6
_chemical_formula_sum              "Sc2 Co1 Br6"
_cell_length_a       6.881441283953746
_cell_length_b       6.881441280240326
_cell_length_c       6.881441300467044
_cell_angle_alpha    60.00000058738107
_cell_angle_beta     60.00000103005483
_cell_angle_gamma    60.000001100350204

_space_group_name_H-M_alt    "P 1"
_space_group_IT_number       1

loop_
  _space_group_symop_operation_xyz
  'x, y, z'

loop_
  _atom_site_type_symbol
  _atom_site_label
  _atom_site_symmetry_multiplicity
  _atom_site_fract_x
  _atom_site_fract_y
  _atom_site_fract_z
  _atom_site_occupancy
  Sc  Sc1       1.0  0.25000003586807173  0.25000008545297175  0.2499998075490664  1.0000
  Sc  Sc2       1.0  0.7499999679297044  0.7499999253199157  0.7500001942288262  1.0000
  Co  Co1       1.0  0.9999999932880314  8.583968012098288e-17  4.1138766747395655e-08  1.0000
  Br  Br1       1.0  0.24693306642194895  0.24693304291161491  0.7530669747707049  1.0000
  Br  Br2       1.0  0.7530669781391139  0.7530669714208321  0.24693298886074158  1.0000
  Br  Br3       1.0  0.7530669641475078  0.24693308663796731  0.2469330265383103  1.0000
  Br  Br4       1.0  0.2469330436169762  0.753066892098888  0.753066973289221  1.0000
  Br  Br5       1.0  0.24693306932296138  0.7530669490253956  0.24693301206819954  1.0000
  Br  Br6       1.0  0.7530668794064314  0.24693304572947514  0.7530669831105583  1.0000
