data_image0
_chemical_formula_structural       Sc2CuI6
_chemical_formula_sum              "Sc2 Cu1 I6"
_cell_length_a       7.545037370434818
_cell_length_b       7.545037368900077
_cell_length_c       7.545037334383693
_cell_angle_alpha    59.99999989773037
_cell_angle_beta     60.00000026166689
_cell_angle_gamma    59.999999411507105

_space_group_name_H-M_alt    "P 1"
_space_group_IT_number       1

loop_
  _space_group_symop_operation_xyz
  'x, y, z'

loop_
  _atom_site_type_symbol
  _atom_site_label
  _atom_site_symmetry_multiplicity
  _atom_site_fract_x
  _atom_site_fract_y
  _atom_site_fract_z
  _atom_site_occupancy
  Sc  Sc1       1.0  0.24999992828269793  0.25000000842112896  0.2500000728234894  1.0000
  Sc  Sc2       1.0  0.750000018120354  0.7499999911752281  0.7499999505558577  1.0000
  Cu  Cu1       1.0  0.9999999948517581  2.9218420957577373e-08  0.9999999853141615  1.0000
  I   I1        1.0  0.2529060601085971  0.25290611311752503  0.7470939217968707  1.0000
  I   I2        1.0  0.7470939497521143  0.7470939027112875  0.25290608691953403  1.0000
  I   I3        1.0  0.7470939339574593  0.2529060636146255  0.252906065027434  1.0000
  I   I4        1.0  0.252906093201944  0.7470939278655029  0.7470939127542302  1.0000
  I   I5        1.0  0.2529060580465816  0.7470938986380397  0.25290609606542663  1.0000
  I   I6        1.0  0.747093963996436  0.2529060668701592  0.7470939118395147  1.0000
