data_image0
_chemical_formula_structural       Sc2CuCl6
_chemical_formula_sum              "Sc2 Cu1 Cl6"
_cell_length_a       6.538220400902308
_cell_length_b       6.538220303158134
_cell_length_c       6.538220501917375
_cell_angle_alpha    59.99999964181011
_cell_angle_beta     60.00000024185212
_cell_angle_gamma    59.99999919481259

_space_group_name_H-M_alt    "P 1"
_space_group_IT_number       1

loop_
  _space_group_symop_operation_xyz
  'x, y, z'

loop_
  _atom_site_type_symbol
  _atom_site_label
  _atom_site_symmetry_multiplicity
  _atom_site_fract_x
  _atom_site_fract_y
  _atom_site_fract_z
  _atom_site_occupancy
  Sc  Sc1       1.0  0.2500000676490596  0.24999998601986675  0.2499999374279947  1.0000
  Sc  Sc2       1.0  0.7500000825844904  0.7500000648324768  0.7499999796730453  1.0000
  Cu  Cu1       1.0  1.7476966066904351e-09  3.1844541788299445e-08  0.9999999816744128  1.0000
  Cl  Cl1       1.0  0.2527704951733818  0.252770472756738  0.7472295520650928  1.0000
  Cl  Cl2       1.0  0.747229483162989  0.7472295162797313  0.2527704711861957  1.0000
  Cl  Cl3       1.0  0.7472294911604233  0.25277047491588395  0.2527704893622674  1.0000
  Cl  Cl4       1.0  0.25277045497640627  0.7472295047545435  0.7472295026698954  1.0000
  Cl  Cl5       1.0  0.2527704490579027  0.7472295006591476  0.252770543031658  1.0000
  Cl  Cl6       1.0  0.7472294674841289  0.2527704565327803  0.7472295499810925  1.0000
