data_image0
_chemical_formula_structural       Sc2CuBr6
_chemical_formula_sum              "Sc2 Cu1 Br6"
_cell_length_a       6.892849999379416
_cell_length_b       6.892850038762777
_cell_length_c       6.892850055749231
_cell_angle_alpha    59.99999952318084
_cell_angle_beta     59.99999994548311
_cell_angle_gamma    59.99999994490527

_space_group_name_H-M_alt    "P 1"
_space_group_IT_number       1

loop_
  _space_group_symop_operation_xyz
  'x, y, z'

loop_
  _atom_site_type_symbol
  _atom_site_label
  _atom_site_symmetry_multiplicity
  _atom_site_fract_x
  _atom_site_fract_y
  _atom_site_fract_z
  _atom_site_occupancy
  Sc  Sc1       1.0  0.2500000462433731  0.24999995562596444  0.2500000207966137  1.0000
  Sc  Sc2       1.0  0.7499997959496543  0.7500001262956248  0.7500000300814932  1.0000
  Cu  Cu1       1.0  0.999999998324785  0.0  5.189943558715802e-09  1.0000
  Br  Br1       1.0  0.2528804895186962  0.2528803320180238  0.7471195982103579  1.0000
  Br  Br2       1.0  0.7471195701329745  0.7471196201946999  0.25288041749753315  1.0000
  Br  Br3       1.0  0.7471195692825909  0.25288042094048624  0.2528804275332478  1.0000
  Br  Br4       1.0  0.2528804589957848  0.7471195952382537  0.7471195530181592  1.0000
  Br  Br5       1.0  0.2528804550004399  0.7471195587661185  0.25288041057658417  1.0000
  Br  Br6       1.0  0.7471196219956581  0.25288039166977183  0.7471195378655835  1.0000
