data_image0
_chemical_formula_structural       Sc2CF6
_chemical_formula_sum              "Sc2 C1 F6"
_cell_length_a       5.260892098163691
_cell_length_b       5.260890404845499
_cell_length_c       5.260890832682247
_cell_angle_alpha    59.99998997451441
_cell_angle_beta     59.99999488387347
_cell_angle_gamma    59.999993692632884

_space_group_name_H-M_alt    "P 1"
_space_group_IT_number       1

loop_
  _space_group_symop_operation_xyz
  'x, y, z'

loop_
  _atom_site_type_symbol
  _atom_site_label
  _atom_site_symmetry_multiplicity
  _atom_site_fract_x
  _atom_site_fract_y
  _atom_site_fract_z
  _atom_site_occupancy
  Sc  Sc1       1.0  0.2499994420722789  0.24999994841309073  0.25000104622906894  1.0000
  Sc  Sc2       1.0  0.7500012998676225  0.7499989838726779  0.7499993073494724  1.0000
  C   C1        1.0  0.99999988579395  3.492027662786702e-07  4.21704097581852e-08  1.0000
  F   F1        1.0  0.2573153859299867  0.25731500845400895  0.7426848937668816  1.0000
  F   F2        1.0  0.7426847505811053  0.7426850948250638  0.25731452694939055  1.0000
  F   F3        1.0  0.7426841168598495  0.2573152181076033  0.2573156628724171  1.0000
  F   F4        1.0  0.25731501383070765  0.7426856441054236  0.7426847024409079  1.0000
  F   F5        1.0  0.25731572672172714  0.7426852973178394  0.25731448012943164  1.0000
  F   F6        1.0  0.7426845450349817  0.25731446607052977  0.7426852558010908  1.0000
