data_image0
_chemical_formula_structural       Sc2CrI6
_chemical_formula_sum              "Sc2 Cr1 I6"
_cell_length_a       7.686962008886798
_cell_length_b       7.686962080570063
_cell_length_c       7.686962080266373
_cell_angle_alpha    59.99999944300673
_cell_angle_beta     59.99999953001953
_cell_angle_gamma    59.99999960366596

_space_group_name_H-M_alt    "P 1"
_space_group_IT_number       1

loop_
  _space_group_symop_operation_xyz
  'x, y, z'

loop_
  _atom_site_type_symbol
  _atom_site_label
  _atom_site_symmetry_multiplicity
  _atom_site_fract_x
  _atom_site_fract_y
  _atom_site_fract_z
  _atom_site_occupancy
  Sc  Sc1       1.0  0.2499999999979253  0.25000001319144166  0.25000000503458664  1.0000
  Sc  Sc2       1.0  0.7500000025424801  0.7500000634734589  0.7499998887011895  1.0000
  Cr  Cr1       1.0  0.999999988089518  0.9999999681344887  6.351692602719383e-08  1.0000
  I   I1        1.0  0.2474585053658599  0.2474584394799087  0.7525415548137588  1.0000
  I   I2        1.0  0.7525415089965891  0.7525415160960488  0.2474585379558156  1.0000
  I   I3        1.0  0.752541522588093  0.24745843662698946  0.2474585098269632  1.0000
  I   I4        1.0  0.2474585272194876  0.7525414982363863  0.7525414676013014  1.0000
  I   I5        1.0  0.24745843727443237  0.752541563260086  0.247458491560303  1.0000
  I   I6        1.0  0.7525415089885527  0.24745849747205895  0.7525414864140108  1.0000
