data_image0
_chemical_formula_structural       Sc2CI6
_chemical_formula_sum              "Sc2 C1 I6"
_cell_length_a       7.589703465063261
_cell_length_b       7.58970364698414
_cell_length_c       7.589703527021539
_cell_angle_alpha    60.000000393397805
_cell_angle_beta     60.00000003792182
_cell_angle_gamma    60.000000456161104

_space_group_name_H-M_alt    "P 1"
_space_group_IT_number       1

loop_
  _space_group_symop_operation_xyz
  'x, y, z'

loop_
  _atom_site_type_symbol
  _atom_site_label
  _atom_site_symmetry_multiplicity
  _atom_site_fract_x
  _atom_site_fract_y
  _atom_site_fract_z
  _atom_site_occupancy
  Sc  Sc1       1.0  0.2500000574560736  0.25000008216725844  0.24999997354299175  1.0000
  Sc  Sc2       1.0  0.7499999600072729  0.7499999205358712  0.7499998076957898  1.0000
  C   C1        1.0  2.1821719768182337e-08  2.5819081672860445e-08  0.9999999498281088  1.0000
  I   I1        1.0  0.2531399283868521  0.2531399167729205  0.7468600452146896  1.0000
  I   I2        1.0  0.7468600499049795  0.7468600391331228  0.2531400741450855  1.0000
  I   I3        1.0  0.7468600456746775  0.2531398940286968  0.25313999153973765  1.0000
  I   I4        1.0  0.2531399989287447  0.7468600683321169  0.7468600650853666  1.0000
  I   I5        1.0  0.2531398918943842  0.7468600744723268  0.2531399910692235  1.0000
  I   I6        1.0  0.7468600440116644  0.25313997664158017  0.7468601005619363  1.0000
