data_image0
_chemical_formula_structural       Sc2CrBr6
_chemical_formula_sum              "Sc2 Cr1 Br6"
_cell_length_a       6.994661337776921
_cell_length_b       6.994661259694446
_cell_length_c       6.994661375048
_cell_angle_alpha    60.00000235483876
_cell_angle_beta     60.00000129807098
_cell_angle_gamma    60.000001345580664

_space_group_name_H-M_alt    "P 1"
_space_group_IT_number       1

loop_
  _space_group_symop_operation_xyz
  'x, y, z'

loop_
  _atom_site_type_symbol
  _atom_site_label
  _atom_site_symmetry_multiplicity
  _atom_site_fract_x
  _atom_site_fract_y
  _atom_site_fract_z
  _atom_site_occupancy
  Sc  Sc1       1.0  0.25000006462628105  0.2500000673848586  0.24999984253756571  1.0000
  Sc  Sc2       1.0  0.7500000156749803  0.7500000533220557  0.7499999770632386  1.0000
  Cr  Cr1       1.0  1.2156656461362121e-08  0.9999999684825227  0.9999999782278508  1.0000
  Br  Br1       1.0  0.24322439143015573  0.24322439966144319  0.7567756146332901  1.0000
  Br  Br2       1.0  0.756775599528889  0.7567755582051781  0.24322441397914715  1.0000
  Br  Br3       1.0  0.7567756419757934  0.24322442145927795  0.24322434863869397  1.0000
  Br  Br4       1.0  0.24322433567646207  0.7567755416602565  0.7567756968676372  1.0000
  Br  Br5       1.0  0.24322439775352275  0.7567755801651956  0.2432243940722459  1.0000
  Br  Br6       1.0  0.7567755402616029  0.24322441272084586  0.7567757121262062  1.0000
