data_image0
_chemical_formula_structural       Sc2FeF6
_chemical_formula_sum              "Sc2 Fe1 F6"
_cell_length_a       5.274326726920404
_cell_length_b       5.274327198013829
_cell_length_c       5.274327060605953
_cell_angle_alpha    59.99999930250892
_cell_angle_beta     60.000000030420274
_cell_angle_gamma    60.00000049762526

_space_group_name_H-M_alt    "P 1"
_space_group_IT_number       1

loop_
  _space_group_symop_operation_xyz
  'x, y, z'

loop_
  _atom_site_type_symbol
  _atom_site_label
  _atom_site_symmetry_multiplicity
  _atom_site_fract_x
  _atom_site_fract_y
  _atom_site_fract_z
  _atom_site_occupancy
  Sc  Sc1       1.0  0.24999994687501245  0.25000024034841517  0.24999989602049535  1.0000
  Sc  Sc2       1.0  0.7500000551678189  0.7499998409741201  0.7500000663291072  1.0000
  Fe  Fe1       1.0  5.175384409669271e-09  0.9999999582024264  3.537488339081374e-08  1.0000
  F   F1        1.0  0.26033305762825965  0.26033329573376557  0.7396668281056059  1.0000
  F   F2        1.0  0.7396669334036973  0.7396666741285742  0.2603332144392973  1.0000
  F   F3        1.0  0.739666823658116  0.26033312195850855  0.26033318255716975  1.0000
  F   F4        1.0  0.26033321863423065  0.7396668386154822  0.7396668029781611  1.0000
  F   F5        1.0  0.26033319381175957  0.7396669020201398  0.26033310927713227  1.0000
  F   F6        1.0  0.7396667635613212  0.2603331491152594  0.7396668942928663  1.0000
