data_image0
_chemical_formula_structural       Sc2FeBr6
_chemical_formula_sum              "Sc2 Fe1 Br6"
_cell_length_a       6.849286104501192
_cell_length_b       6.849286130921937
_cell_length_c       6.849286214852127
_cell_angle_alpha    59.9999995858009
_cell_angle_beta     60.00000141907197
_cell_angle_gamma    59.99999959100814

_space_group_name_H-M_alt    "P 1"
_space_group_IT_number       1

loop_
  _space_group_symop_operation_xyz
  'x, y, z'

loop_
  _atom_site_type_symbol
  _atom_site_label
  _atom_site_symmetry_multiplicity
  _atom_site_fract_x
  _atom_site_fract_y
  _atom_site_fract_z
  _atom_site_occupancy
  Sc  Sc1       1.0  0.24999989201800535  0.24999988113444116  0.2500000546907112  1.0000
  Sc  Sc2       1.0  0.7500000315940994  0.7500001244116548  0.750000224679949  1.0000
  Fe  Fe1       1.0  0.9999999847249044  5.3644057994023665e-09  0.9999999421750803  1.0000
  Br  Br1       1.0  0.23573214754780727  0.23573209553890767  0.7642678753700763  1.0000
  Br  Br2       1.0  0.7642678677995742  0.7642679028546497  0.2357320200677765  1.0000
  Br  Br3       1.0  0.7642679727943478  0.23573214099719478  0.23573203387150307  1.0000
  Br  Br4       1.0  0.2357320078977043  0.7642679360743061  0.764267914015356  1.0000
  Br  Br5       1.0  0.23573215239163592  0.7642679114157408  0.23573202621095032  1.0000
  Br  Br6       1.0  0.7642679471996149  0.2357320011473321  0.7642679065203654  1.0000
