data_image0
_chemical_formula_structural       Sc2FeCl6
_chemical_formula_sum              "Sc2 Fe1 Cl6"
_cell_length_a       6.583028437087548
_cell_length_b       6.58302846019278
_cell_length_c       6.583028360154448
_cell_angle_alpha    59.99999864804093
_cell_angle_beta     59.999998339232036
_cell_angle_gamma    59.999999657188155

_space_group_name_H-M_alt    "P 1"
_space_group_IT_number       1

loop_
  _space_group_symop_operation_xyz
  'x, y, z'

loop_
  _atom_site_type_symbol
  _atom_site_label
  _atom_site_symmetry_multiplicity
  _atom_site_fract_x
  _atom_site_fract_y
  _atom_site_fract_z
  _atom_site_occupancy
  Sc  Sc1       1.0  0.24999982559222259  0.24999998690461644  0.25000018054907563  1.0000
  Sc  Sc2       1.0  0.7500001713497713  0.7499998397840795  0.7499999191137968  1.0000
  Fe  Fe1       1.0  1.4652606535232058e-08  0.9999999981395418  1.0313560497917303e-08  1.0000
  Cl  Cl1       1.0  0.24050996175410314  0.2405101609325626  0.7594899588837424  1.0000
  Cl  Cl2       1.0  0.7594900915790137  0.7594899280807296  0.24051004370263215  1.0000
  Cl  Cl3       1.0  0.7594899844669294  0.24050996855878232  0.24051003859711612  1.0000
  Cl  Cl4       1.0  0.24051006590833804  0.7594900609198513  0.7594898737108962  1.0000
  Cl  Cl5       1.0  0.24050992766877843  0.7594899394446246  0.24051005496605984  1.0000
  Cl  Cl6       1.0  0.7594899624489154  0.24051012352225457  0.759489914650388  1.0000
