data_image0
_chemical_formula_structural       Sc2FeI6
_chemical_formula_sum              "Sc2 Fe1 I6"
_cell_length_a       7.540610134301054
_cell_length_b       7.540610179238976
_cell_length_c       7.540610206234884
_cell_angle_alpha    60.00000002944796
_cell_angle_beta     59.999999492382805
_cell_angle_gamma    60.000002416735384

_space_group_name_H-M_alt    "P 1"
_space_group_IT_number       1

loop_
  _space_group_symop_operation_xyz
  'x, y, z'

loop_
  _atom_site_type_symbol
  _atom_site_label
  _atom_site_symmetry_multiplicity
  _atom_site_fract_x
  _atom_site_fract_y
  _atom_site_fract_z
  _atom_site_occupancy
  Sc  Sc1       1.0  0.24999987385690148  0.24999984491582997  0.2500001348121362  1.0000
  Sc  Sc2       1.0  0.7500000031822439  0.7500000804782336  0.7499999871806088  1.0000
  Fe  Fe1       1.0  0.99999982959211  0.9999999691402217  9.79815290871501e-08  1.0000
  I   I1        1.0  0.2417129864205815  0.24171290034232754  0.7582870583633093  1.0000
  I   I2        1.0  0.7582871750677801  0.7582872053377899  0.24171279943413726  1.0000
  I   I3        1.0  0.7582871300844912  0.2417129364451037  0.24171290650673802  1.0000
  I   I4        1.0  0.2417129253428379  0.7582870831524844  0.7582870367532687  1.0000
  I   I5        1.0  0.2417129357741666  0.7582870640454471  0.24171295577648602  1.0000
  I   I6        1.0  0.7582871367921675  0.24171291332297756  0.7582870225731945  1.0000
