data_image0
_chemical_formula_structural       Sc2GeI6
_chemical_formula_sum              "Sc2 Ge1 I6"
_cell_length_a       7.790094671925715
_cell_length_b       7.790094354087718
_cell_length_c       7.790094380111031
_cell_angle_alpha    59.99999996861515
_cell_angle_beta     59.99999984413517
_cell_angle_gamma    60.00000003117325

_space_group_name_H-M_alt    "P 1"
_space_group_IT_number       1

loop_
  _space_group_symop_operation_xyz
  'x, y, z'

loop_
  _atom_site_type_symbol
  _atom_site_label
  _atom_site_symmetry_multiplicity
  _atom_site_fract_x
  _atom_site_fract_y
  _atom_site_fract_z
  _atom_site_occupancy
  Sc  Sc1       1.0  0.24999991727879933  0.2499999773073582  0.25000011439763886  1.0000
  Sc  Sc2       1.0  0.7500000578565741  0.7499999743709992  0.7499999892429536  1.0000
  Ge  Ge1       1.0  1.2053397710655916e-08  0.9999999638398063  5.6349903603026535e-09  1.0000
  I   I1        1.0  0.25938718336947825  0.2593871982099578  0.7406128207369391  1.0000
  I   I2        1.0  0.740612804805707  0.7406128210722398  0.25938717326302646  1.0000
  I   I3        1.0  0.7406127776657089  0.2593872070932808  0.25938718853645765  1.0000
  I   I4        1.0  0.25938716776260445  0.7406128514934747  0.7406127789436725  1.0000
  I   I5        1.0  0.25938720493862144  0.7406127824934422  0.25938719384485226  1.0000
  I   I6        1.0  0.7406128799436205  0.2593872179225681  0.7406127291426401  1.0000
