data_image0
_chemical_formula_structural       Sc2GeBr6
_chemical_formula_sum              "Sc2 Ge1 Br6"
_cell_length_a       7.183831847504936
_cell_length_b       7.183832047370734
_cell_length_c       7.183832242471286
_cell_angle_alpha    60.00000155611483
_cell_angle_beta     60.00000107091254
_cell_angle_gamma    59.99999901598061

_space_group_name_H-M_alt    "P 1"
_space_group_IT_number       1

loop_
  _space_group_symop_operation_xyz
  'x, y, z'

loop_
  _atom_site_type_symbol
  _atom_site_label
  _atom_site_symmetry_multiplicity
  _atom_site_fract_x
  _atom_site_fract_y
  _atom_site_fract_z
  _atom_site_occupancy
  Sc  Sc1       1.0  0.24999969736184882  0.2499999604175759  0.25000002373769165  1.0000
  Sc  Sc2       1.0  0.7500003025558677  0.7499999869541971  0.7499996428096315  1.0000
  Ge  Ge1       1.0  0.9999999799651137  0.9999999829513718  2.1325785888899138e-08  1.0000
  Br  Br1       1.0  0.2530169850552738  0.25301708508271786  0.7469830026462185  1.0000
  Br  Br2       1.0  0.7469829776479765  0.7469829594662486  0.25301713226100037  1.0000
  Br  Br3       1.0  0.7469830825187952  0.2530170077937001  0.25301704771578504  1.0000
  Br  Br4       1.0  0.25301703340464515  0.7469829532169802  0.7469829966698963  1.0000
  Br  Br5       1.0  0.25301694534811053  0.7469830488628001  0.2530171512147765  1.0000
  Br  Br6       1.0  0.7469830105356878  0.2530170161445213  0.7469829838330647  1.0000
