data_image0
_chemical_formula_structural       Sc2MnBr6
_chemical_formula_sum              "Sc2 Mn1 Br6"
_cell_length_a       6.892157053472955
_cell_length_b       6.892156784074054
_cell_length_c       6.892157123996747
_cell_angle_alpha    59.999999153874974
_cell_angle_beta     60.00000145617458
_cell_angle_gamma    60.00000177159109

_space_group_name_H-M_alt    "P 1"
_space_group_IT_number       1

loop_
  _space_group_symop_operation_xyz
  'x, y, z'

loop_
  _atom_site_type_symbol
  _atom_site_label
  _atom_site_symmetry_multiplicity
  _atom_site_fract_x
  _atom_site_fract_y
  _atom_site_fract_z
  _atom_site_occupancy
  Sc  Sc1       1.0  0.25000019422682174  0.25000027618193793  0.24999948064634342  1.0000
  Sc  Sc2       1.0  0.7500000999847727  0.7499997836624491  0.7500005637939287  1.0000
  Mn  Mn1       1.0  1.5670785437950034e-08  0.9999999982229877  0.9999998740773002  1.0000
  Br  Br1       1.0  0.24202296233535603  0.24202313281875262  0.7579769739732565  1.0000
  Br  Br2       1.0  0.7579769161285874  0.7579768523910962  0.2420229921019286  1.0000
  Br  Br3       1.0  0.7579768120869788  0.24202324875949807  0.242023071886745  1.0000
  Br  Br4       1.0  0.24202296241601678  0.7579768874964111  0.7579770012290931  1.0000
  Br  Br5       1.0  0.2420232236109576  0.7579768348683948  0.24202300964686885  1.0000
  Br  Br6       1.0  0.7579768112589657  0.24202297264020856  0.7579770468768006  1.0000
