data_image0
_chemical_formula_structural       Sc2MnF6
_chemical_formula_sum              "Sc2 Mn1 F6"
_cell_length_a       5.279664961363433
_cell_length_b       5.279665064425409
_cell_length_c       5.279664809487614
_cell_angle_alpha    60.00000046299397
_cell_angle_beta     60.00000062707617
_cell_angle_gamma    59.99999820002645

_space_group_name_H-M_alt    "P 1"
_space_group_IT_number       1

loop_
  _space_group_symop_operation_xyz
  'x, y, z'

loop_
  _atom_site_type_symbol
  _atom_site_label
  _atom_site_symmetry_multiplicity
  _atom_site_fract_x
  _atom_site_fract_y
  _atom_site_fract_z
  _atom_site_occupancy
  Sc  Sc1       1.0  0.2500000728482905  0.2499998675610234  0.25000002045840314  1.0000
  Sc  Sc2       1.0  0.7499999510093557  0.7499999460045536  0.7500002185703657  1.0000
  Mn  Mn1       1.0  0.9999999782619521  0.9999999930407818  0.9999999821496194  1.0000
  F   F1        1.0  0.26021125948571355  0.2602112420277107  0.7397887692002165  1.0000
  F   F2        1.0  0.7397887584473856  0.7397888058315802  0.26021113782710886  1.0000
  F   F3        1.0  0.7397886925481267  0.260211289442789  0.2602112389734171  1.0000
  F   F4        1.0  0.26021125913224535  0.7397887537770242  0.739788724334667  1.0000
  F   F5        1.0  0.26021127770569136  0.7397888405466954  0.2602111887422308  1.0000
  F   F6        1.0  0.7397887850945657  0.2602112629863474  0.7397886907433546  1.0000
