data_image0
_chemical_formula_structural       Sc2MgBr6
_chemical_formula_sum              "Sc2 Mg1 Br6"
_cell_length_a       7.023167582780771
_cell_length_b       7.023167714163205
_cell_length_c       7.02316760975659
_cell_angle_alpha    60.00000133165888
_cell_angle_beta     60.000000918491494
_cell_angle_gamma    60.000000002365816

_space_group_name_H-M_alt    "P 1"
_space_group_IT_number       1

loop_
  _space_group_symop_operation_xyz
  'x, y, z'

loop_
  _atom_site_type_symbol
  _atom_site_label
  _atom_site_symmetry_multiplicity
  _atom_site_fract_x
  _atom_site_fract_y
  _atom_site_fract_z
  _atom_site_occupancy
  Sc  Sc1       1.0  0.24999999981734247  0.25000007393335677  0.2500000941396654  1.0000
  Sc  Sc2       1.0  0.7500000288527812  0.7499998869781999  0.7499998356849383  1.0000
  Mg  Mg1       1.0  8.685096282196736e-09  3.31334136549059e-08  0.9999999548851433  1.0000
  Br  Br1       1.0  0.2540440084475613  0.25404406040554994  0.745955923664551  1.0000
  Br  Br2       1.0  0.7459559927196732  0.7459559632851076  0.2540440910397908  1.0000
  Br  Br3       1.0  0.745955904232414  0.2540440353180176  0.2540440723127562  1.0000
  Br  Br4       1.0  0.25404401879730215  0.7459559761655938  0.7459559904115851  1.0000
  Br  Br5       1.0  0.25404403391003705  0.7459559054147638  0.2540440559985737  1.0000
  Br  Br6       1.0  0.7459560050066931  0.2540440642161129  0.7459559867949358  1.0000
