data_image0
_chemical_formula_structural       Sc2MgI6
_chemical_formula_sum              "Sc2 Mg1 I6"
_cell_length_a       7.704401784088664
_cell_length_b       7.7044018605692415
_cell_length_c       7.70440181532521
_cell_angle_alpha    59.99999934966292
_cell_angle_beta     60.00000016099974
_cell_angle_gamma    60.000000411193824

_space_group_name_H-M_alt    "P 1"
_space_group_IT_number       1

loop_
  _space_group_symop_operation_xyz
  'x, y, z'

loop_
  _atom_site_type_symbol
  _atom_site_label
  _atom_site_symmetry_multiplicity
  _atom_site_fract_x
  _atom_site_fract_y
  _atom_site_fract_z
  _atom_site_occupancy
  Sc  Sc1       1.0  0.2500000323790723  0.2499999314071665  0.2500000277557662  1.0000
  Sc  Sc2       1.0  0.7500000100093641  0.7499999881611166  0.7499999987103917  1.0000
  Mg  Mg1       1.0  0.9999999885242568  2.543470410604972e-08  0.9999999696572519  1.0000
  I   I1        1.0  0.25620956794409827  0.2562095849211941  0.7437904127264879  1.0000
  I   I2        1.0  0.7437903982935355  0.7437904506929254  0.25620956134316963  1.0000
  I   I3        1.0  0.7437903938434401  0.2562096143865619  0.25620957449136117  1.0000
  I   I4        1.0  0.2562095777684066  0.7437904275862336  0.7437904222669565  1.0000
  I   I5        1.0  0.25620959302069374  0.7437904089533104  0.25620960976249546  1.0000
  I   I6        1.0  0.7437904361958176  0.2562095726120633  0.7437904234421023  1.0000
