data_image0
_chemical_formula_structural       Sc2MgF6
_chemical_formula_sum              "Sc2 Mg1 F6"
_cell_length_a       5.347251613222862
_cell_length_b       5.347251665439199
_cell_length_c       5.347251379099246
_cell_angle_alpha    60.00000174213304
_cell_angle_beta     60.000002372118374
_cell_angle_gamma    60.00000057228438

_space_group_name_H-M_alt    "P 1"
_space_group_IT_number       1

loop_
  _space_group_symop_operation_xyz
  'x, y, z'

loop_
  _atom_site_type_symbol
  _atom_site_label
  _atom_site_symmetry_multiplicity
  _atom_site_fract_x
  _atom_site_fract_y
  _atom_site_fract_z
  _atom_site_occupancy
  Sc  Sc1       1.0  0.24999993974544954  0.2500000159006566  0.25000006696397936  1.0000
  Sc  Sc2       1.0  0.7500000017847508  0.7500000247977754  0.750000008862655  1.0000
  Mg  Mg1       1.0  0.9999999743263713  2.519461273212345e-08  1.5200465181213186e-08  1.0000
  F   F1        1.0  0.25257958505103817  0.25257949107601574  0.7474204413709818  1.0000
  F   F2        1.0  0.7474204566212744  0.7474204694577394  0.2525795029091568  1.0000
  F   F3        1.0  0.7474204726417565  0.252579491802686  0.252579562351401  1.0000
  F   F4        1.0  0.25257956521319086  0.7474204801831658  0.7474204267344833  1.0000
  F   F5        1.0  0.2525795368553152  0.7474204866554223  0.2525795086829035  1.0000
  F   F6        1.0  0.7474204679757297  0.252579480749591  0.747420512296189  1.0000
