data_image0
_chemical_formula_structural       Sc2MnCl6
_chemical_formula_sum              "Sc2 Mn1 Cl6"
_cell_length_a       6.610519774473304
_cell_length_b       6.6105200058769835
_cell_length_c       6.610519855877668
_cell_angle_alpha    60.00000011785284
_cell_angle_beta     60.00000046361925
_cell_angle_gamma    60.00000047731883

_space_group_name_H-M_alt    "P 1"
_space_group_IT_number       1

loop_
  _space_group_symop_operation_xyz
  'x, y, z'

loop_
  _atom_site_type_symbol
  _atom_site_label
  _atom_site_symmetry_multiplicity
  _atom_site_fract_x
  _atom_site_fract_y
  _atom_site_fract_z
  _atom_site_occupancy
  Sc  Sc1       1.0  0.25000014086912775  0.25000038289748594  0.24999993099659334  1.0000
  Sc  Sc2       1.0  0.7500000464094746  0.7499995942596166  0.7500003680181545  1.0000
  Mn  Mn1       1.0  7.053517608759361e-10  2.4085373009653654e-08  0.9999998786873336  1.0000
  Cl  Cl1       1.0  0.24737142584041685  0.2473715556741017  0.7526284513148147  1.0000
  Cl  Cl2       1.0  0.7526285095683823  0.7526284696537504  0.24737144429418714  1.0000
  Cl  Cl3       1.0  0.7526283042458605  0.24737166441309483  0.24737136658423625  1.0000
  Cl  Cl4       1.0  0.24737145886612755  0.7526285109851518  0.7526285477016738  1.0000
  Cl  Cl5       1.0  0.24737156316048087  0.7526282791240415  0.2473714573097639  1.0000
  Cl  Cl6       1.0  0.7526285450053246  0.24737151090825363  0.7526285497437529  1.0000
