data_image0
_chemical_formula_structural       Sc2NiI6
_chemical_formula_sum              "Sc2 Ni1 I6"
_cell_length_a       7.528623510494492
_cell_length_b       7.52862345480164
_cell_length_c       7.528623543277003
_cell_angle_alpha    59.999999616514
_cell_angle_beta     59.99999970118416
_cell_angle_gamma    59.999999529113325

_space_group_name_H-M_alt    "P 1"
_space_group_IT_number       1

loop_
  _space_group_symop_operation_xyz
  'x, y, z'

loop_
  _atom_site_type_symbol
  _atom_site_label
  _atom_site_symmetry_multiplicity
  _atom_site_fract_x
  _atom_site_fract_y
  _atom_site_fract_z
  _atom_site_occupancy
  Sc  Sc1       1.0  0.25000003252923675  0.25000009773353127  0.2499998945205739  1.0000
  Sc  Sc2       1.0  0.7499999817726987  0.7499999320544104  0.7500001212819271  1.0000
  Ni  Ni1       1.0  0.9999999890776946  9.760707677965862e-09  0.9999999979242707  1.0000
  I   I1        1.0  0.2487700831859149  0.24877015779137007  0.751229893405895  1.0000
  I   I2        1.0  0.7512298963050215  0.7512298475948023  0.24877009223110771  1.0000
  I   I3        1.0  0.7512298851223391  0.24877014725933963  0.2487700878068457  1.0000
  I   I4        1.0  0.24877012298349577  0.751229832098279  0.7512299164609453  1.0000
  I   I5        1.0  0.24877015273716516  0.7512298464154995  0.24877009440295364  1.0000
  I   I6        1.0  0.7512298580799774  0.24877012480819602  0.7512299032782968  1.0000
