data_image0
_chemical_formula_structural       Sc2NiF6
_chemical_formula_sum              "Sc2 Ni1 F6"
_cell_length_a       5.217196811184698
_cell_length_b       5.217196462430604
_cell_length_c       5.21719671137519
_cell_angle_alpha    59.99999960002765
_cell_angle_beta     59.99999982112504
_cell_angle_gamma    59.99999986312597

_space_group_name_H-M_alt    "P 1"
_space_group_IT_number       1

loop_
  _space_group_symop_operation_xyz
  'x, y, z'

loop_
  _atom_site_type_symbol
  _atom_site_label
  _atom_site_symmetry_multiplicity
  _atom_site_fract_x
  _atom_site_fract_y
  _atom_site_fract_z
  _atom_site_occupancy
  Sc  Sc1       1.0  0.24999999437508705  0.24999998115427863  0.2499999696698362  1.0000
  Sc  Sc2       1.0  0.7499999909924259  0.7500000725761825  0.7499999555235435  1.0000
  Ni  Ni1       1.0  0.9999999969160503  0.9999999295745391  2.9087752034409783e-08  1.0000
  F   F1        1.0  0.2551652941336062  0.2551652720795411  0.7448347173370764  1.0000
  F   F2        1.0  0.744834700670037  0.7448346736652153  0.2551653491345209  1.0000
  F   F3        1.0  0.7448347142800072  0.25516533809389447  0.2551652945738462  1.0000
  F   F4        1.0  0.2551653278957917  0.7448346381685621  0.7448347329528231  1.0000
  F   F5        1.0  0.2551652657678364  0.7448347568907588  0.25516529187893083  1.0000
  F   F6        1.0  0.744834704620858  0.2551653085772795  0.7448346751865709  1.0000
