data_image0
_chemical_formula_structural       Sc2NbI6
_chemical_formula_sum              "Sc2 Nb1 I6"
_cell_length_a       7.9061261886739596
_cell_length_b       7.906126164643303
_cell_length_c       7.906126249166086
_cell_angle_alpha    59.999999107183676
_cell_angle_beta     60.00000066896334
_cell_angle_gamma    60.00000067860043

_space_group_name_H-M_alt    "P 1"
_space_group_IT_number       1

loop_
  _space_group_symop_operation_xyz
  'x, y, z'

loop_
  _atom_site_type_symbol
  _atom_site_label
  _atom_site_symmetry_multiplicity
  _atom_site_fract_x
  _atom_site_fract_y
  _atom_site_fract_z
  _atom_site_occupancy
  Sc  Sc1       1.0  0.2500000167156238  0.24999997751528288  0.24999999543925178  1.0000
  Sc  Sc2       1.0  0.7500000218503409  0.7499999867646533  0.749999916438731  1.0000
  Nb  Nb1       1.0  3.7796165494043977e-08  9.294652311885386e-09  1.0605323487804605e-08  1.0000
  I   I1        1.0  0.25165079284160846  0.2516507943622506  0.7483492186153408  1.0000
  I   I2        1.0  0.7483491739819987  0.7483491792123355  0.2516508547652142  1.0000
  I   I3        1.0  0.7483491856598673  0.25165080893180575  0.2516508410333962  1.0000
  I   I4        1.0  0.25165082323765053  0.7483492049196071  0.748349178523371  1.0000
  I   I5        1.0  0.2516507391836147  0.7483492329227508  0.2516507999917235  1.0000
  I   I6        1.0  0.7483491986499025  0.25165080571440096  0.7483491933753386  1.0000
