data_image0
_chemical_formula_structural       Sc2NbCl6
_chemical_formula_sum              "Sc2 Nb1 Cl6"
_cell_length_a       6.650355676909403
_cell_length_b       6.650355476123756
_cell_length_c       6.650355473832571
_cell_angle_alpha    59.99999913311894
_cell_angle_beta     60.000002004016764
_cell_angle_gamma    59.999999966606794

_space_group_name_H-M_alt    "P 1"
_space_group_IT_number       1

loop_
  _space_group_symop_operation_xyz
  'x, y, z'

loop_
  _atom_site_type_symbol
  _atom_site_label
  _atom_site_symmetry_multiplicity
  _atom_site_fract_x
  _atom_site_fract_y
  _atom_site_fract_z
  _atom_site_occupancy
  Sc  Sc1       1.0  0.2500001608475681  0.24999945919087663  0.25000019367025966  1.0000
  Sc  Sc2       1.0  0.7499998131909021  0.750000427299241  0.7499997645143184  1.0000
  Nb  Nb1       1.0  0.9999999667996707  1.1049740758467728e-08  0.9999998787515402  1.0000
  Cl  Cl1       1.0  0.2587209646874084  0.258720877068768  0.741279168992405  1.0000
  Cl  Cl2       1.0  0.7412789625732176  0.7412791862171711  0.25872104446681377  1.0000
  Cl  Cl3       1.0  0.7412790843346299  0.25872092582755307  0.2587208987055081  1.0000
  Cl  Cl4       1.0  0.2587210129418171  0.7412792055984481  0.7412789926791028  1.0000
  Cl  Cl5       1.0  0.25872076810269296  0.7412790869849153  0.2587210325696581  1.0000
  Cl  Cl6       1.0  0.7412792873311783  0.2587208105549399  0.7412790177308209  1.0000
