data_image0
_chemical_formula_structural       Sc2NiBr6
_chemical_formula_sum              "Sc2 Ni1 Br6"
_cell_length_a       6.904519639955759
_cell_length_b       6.90451933625785
_cell_length_c       6.904519464318971
_cell_angle_alpha    59.99999960282146
_cell_angle_beta     60.0000014407361
_cell_angle_gamma    60.00000047006047

_space_group_name_H-M_alt    "P 1"
_space_group_IT_number       1

loop_
  _space_group_symop_operation_xyz
  'x, y, z'

loop_
  _atom_site_type_symbol
  _atom_site_label
  _atom_site_symmetry_multiplicity
  _atom_site_fract_x
  _atom_site_fract_y
  _atom_site_fract_z
  _atom_site_occupancy
  Sc  Sc1       1.0  0.2500000410742514  0.24999994709473744  0.2500000071437556  1.0000
  Sc  Sc2       1.0  0.7500000043616797  0.7500000523700715  0.7499999666289138  1.0000
  Ni  Ni1       1.0  0.9999999951857433  0.9999999893570154  0.9999999773137596  1.0000
  Br  Br1       1.0  0.2477464533022851  0.2477464849743683  0.7522535158316743  1.0000
  Br  Br2       1.0  0.752253529478689  0.7522534967521323  0.247746490895994  1.0000
  Br  Br3       1.0  0.7522535093989329  0.2477464791216841  0.24774647861158264  1.0000
  Br  Br4       1.0  0.2477464592754372  0.7522535700103852  0.7522535333297912  1.0000
  Br  Br5       1.0  0.24774645303473042  0.7522535344387525  0.24774647477860934  1.0000
  Br  Br6       1.0  0.7522535616229784  0.2477464419662562  0.7522535505346253  1.0000
