data_image0
_chemical_formula_structural       Sc2NbBr6
_chemical_formula_sum              "Sc2 Nb1 Br6"
_cell_length_a       7.188140109102135
_cell_length_b       7.188139645020237
_cell_length_c       7.188140369631696
_cell_angle_alpha    59.999995526769425
_cell_angle_beta     59.9999956758639
_cell_angle_gamma    59.99999345226945

_space_group_name_H-M_alt    "P 1"
_space_group_IT_number       1

loop_
  _space_group_symop_operation_xyz
  'x, y, z'

loop_
  _atom_site_type_symbol
  _atom_site_label
  _atom_site_symmetry_multiplicity
  _atom_site_fract_x
  _atom_site_fract_y
  _atom_site_fract_z
  _atom_site_occupancy
  Sc  Sc1       1.0  0.24999998625543912  0.24999993972022566  0.25000034408431143  1.0000
  Sc  Sc2       1.0  0.7499997938085247  0.7499999333180524  0.7500003370216981  1.0000
  Nb  Nb1       1.0  6.162775118504624e-08  0.9999999693308542  0.9999999386117429  1.0000
  Br  Br1       1.0  0.25376274939546856  0.25376271590934146  0.7462370936712804  1.0000
  Br  Br2       1.0  0.7462372500933444  0.7462373036592863  0.25376268104331506  1.0000
  Br  Br3       1.0  0.7462373205462877  0.25376276343490606  0.25376260996084965  1.0000
  Br  Br4       1.0  0.2537627333956907  0.7462373771064552  0.7462371772057829  1.0000
  Br  Br5       1.0  0.2537627347872702  0.7462372941589231  0.2537626490457882  1.0000
  Br  Br6       1.0  0.746237370643011  0.2537627015559228  0.7462371861811311  1.0000
