data_image0
_chemical_formula_structural       Sc2NbF6
_chemical_formula_sum              "Sc2 Nb1 F6"
_cell_length_a       5.660363453702047
_cell_length_b       5.6603642228520235
_cell_length_c       5.66036405485764
_cell_angle_alpha    59.99999704840938
_cell_angle_beta     59.99998436185655
_cell_angle_gamma    59.99999334216624

_space_group_name_H-M_alt    "P 1"
_space_group_IT_number       1

loop_
  _space_group_symop_operation_xyz
  'x, y, z'

loop_
  _atom_site_type_symbol
  _atom_site_label
  _atom_site_symmetry_multiplicity
  _atom_site_fract_x
  _atom_site_fract_y
  _atom_site_fract_z
  _atom_site_occupancy
  Sc  Sc1       1.0  0.24999868696933986  0.25000089541384285  0.24999894755305854  1.0000
  Sc  Sc2       1.0  0.7499996114259959  0.749999568319387  0.7499995820013053  1.0000
  Nb  Nb1       1.0  8.343041379512033e-08  1.5362418546368384e-07  0.9999994857384247  1.0000
  F   F1        1.0  0.26044052047957583  0.26044207824194426  0.7395600161436534  1.0000
  F   F2        1.0  0.739559954128367  0.7395576952641749  0.26044190266082895  1.0000
  F   F3        1.0  0.7395599708530777  0.26044132690468996  0.2604409465493944  1.0000
  F   F4        1.0  0.2604413114515891  0.7395578472506682  0.7395594335453453  1.0000
  F   F5        1.0  0.26044069922761615  0.7395585498719341  0.2604415482720071  1.0000
  F   F6        1.0  0.7395591884752496  0.2604418338035344  0.7395580904950432  1.0000
