data_image0
_chemical_formula_structural       Sc2PdCl6
_chemical_formula_sum              "Sc2 Pd1 Cl6"
_cell_length_a       6.704494768911402
_cell_length_b       6.704494781716906
_cell_length_c       6.704494723827493
_cell_angle_alpha    59.999999145363454
_cell_angle_beta     60.00000010599955
_cell_angle_gamma    60.000000949934964

_space_group_name_H-M_alt    "P 1"
_space_group_IT_number       1

loop_
  _space_group_symop_operation_xyz
  'x, y, z'

loop_
  _atom_site_type_symbol
  _atom_site_label
  _atom_site_symmetry_multiplicity
  _atom_site_fract_x
  _atom_site_fract_y
  _atom_site_fract_z
  _atom_site_occupancy
  Sc  Sc1       1.0  0.2500004614417475  0.2499999353593187  0.24999990036413702  1.0000
  Sc  Sc2       1.0  0.7500003456363006  0.7499997238741118  0.7499996067541904  1.0000
  Pd  Pd1       1.0  0.999999981750406  2.374777479131301e-08  0.9999999972509094  1.0000
  Cl  Cl1       1.0  0.24990985161254967  0.24991012599003534  0.7500898874398194  1.0000
  Cl  Cl2       1.0  0.7500899251518587  0.7500900356001561  0.24991020135426315  1.0000
  Cl  Cl3       1.0  0.7500898728401454  0.24991007087960737  0.24991003153935237  1.0000
  Cl  Cl4       1.0  0.24990994734841268  0.7500899811054696  0.750090030683745  1.0000
  Cl  Cl5       1.0  0.24990985860831114  0.7500900165788799  0.249910112647738  1.0000
  Cl  Cl6       1.0  0.7500897529577113  0.24991007742148572  0.7500902402025854  1.0000
