data_image0
_chemical_formula_structural       Sc2PdI6
_chemical_formula_sum              "Sc2 Pd1 I6"
_cell_length_a       7.614014454801205
_cell_length_b       7.614014412054663
_cell_length_c       7.614014540103636
_cell_angle_alpha    60.00000001448614
_cell_angle_beta     59.99999976936158
_cell_angle_gamma    59.99999993597796

_space_group_name_H-M_alt    "P 1"
_space_group_IT_number       1

loop_
  _space_group_symop_operation_xyz
  'x, y, z'

loop_
  _atom_site_type_symbol
  _atom_site_label
  _atom_site_symmetry_multiplicity
  _atom_site_fract_x
  _atom_site_fract_y
  _atom_site_fract_z
  _atom_site_occupancy
  Sc  Sc1       1.0  0.25000000272684286  0.2500000524246888  0.24999998689401753  1.0000
  Sc  Sc2       1.0  0.7499999632703791  0.7499999143844864  0.749999974558524  1.0000
  Pd  Pd1       1.0  0.9999999894761699  0.9999999951743792  1.1614828198681233e-08  1.0000
  I   I1        1.0  0.25141048291583357  0.25141051196537734  0.7485894999561701  1.0000
  I   I2        1.0  0.7485895242725531  0.7485894950573049  0.25141052586344376  1.0000
  I   I3        1.0  0.7485894679998862  0.2514105204778765  0.25141051386464747  1.0000
  I   I4        1.0  0.2514105541857591  0.7485894688508629  0.7485894936027946  1.0000
  I   I5        1.0  0.25141052619107623  0.7485894642881348  0.25141052367634953  1.0000
  I   I6        1.0  0.7485894910611706  0.2514105716882723  0.7485894747542664  1.0000
