data_image0
_chemical_formula_structural       Sc2PdBr6
_chemical_formula_sum              "Sc2 Pd1 Br6"
_cell_length_a       7.0034301634412115
_cell_length_b       7.003430045898091
_cell_length_c       7.003430041996979
_cell_angle_alpha    59.99999974819369
_cell_angle_beta     60.000000549289844
_cell_angle_gamma    59.999999497595546

_space_group_name_H-M_alt    "P 1"
_space_group_IT_number       1

loop_
  _space_group_symop_operation_xyz
  'x, y, z'

loop_
  _atom_site_type_symbol
  _atom_site_label
  _atom_site_symmetry_multiplicity
  _atom_site_fract_x
  _atom_site_fract_y
  _atom_site_fract_z
  _atom_site_occupancy
  Sc  Sc1       1.0  0.24999991982589645  0.25000006745126435  0.25000001994101645  1.0000
  Sc  Sc2       1.0  0.7500000872018252  0.7500000204808153  0.7499998655283706  1.0000
  Pd  Pd1       1.0  1.1075598043922965e-08  0.999999966773206  0.9999999982247522  1.0000
  Br  Br1       1.0  0.24969280512920175  0.2496928213001388  0.7503071645262449  1.0000
  Br  Br2       1.0  0.7503071717893318  0.7503071739466732  0.24969286944054783  1.0000
  Br  Br3       1.0  0.7503072142847955  0.24969276849973754  0.24969287824124106  1.0000
  Br  Br4       1.0  0.24969280057247595  0.7503071970178379  0.7503071601880316  1.0000
  Br  Br5       1.0  0.24969280081662815  0.7503071372981451  0.24969286966048773  1.0000
  Br  Br6       1.0  0.7503071861945195  0.24969284745599526  0.7503071787850516  1.0000
