data_image0
_chemical_formula_structural       Sc2SBr6
_chemical_formula_sum              "Sc2 S1 Br6"
_cell_length_a       7.216254985631419
_cell_length_b       7.2162547474227186
_cell_length_c       7.216255267072092
_cell_angle_alpha    59.99999730709508
_cell_angle_beta     59.99999796357037
_cell_angle_gamma    59.99999754637572

_space_group_name_H-M_alt    "P 1"
_space_group_IT_number       1

loop_
  _space_group_symop_operation_xyz
  'x, y, z'

loop_
  _atom_site_type_symbol
  _atom_site_label
  _atom_site_symmetry_multiplicity
  _atom_site_fract_x
  _atom_site_fract_y
  _atom_site_fract_z
  _atom_site_occupancy
  Sc  Sc1       1.0  0.24999995450762272  0.24999983717587132  0.24999988687815577  1.0000
  Sc  Sc2       1.0  0.7499996027888075  0.7500000105052921  0.7500008870859016  1.0000
  S   S1        1.0  5.185056924903695e-08  2.2063638738710624e-08  0.9999999214700869  1.0000
  Br  Br1       1.0  0.25587631323750254  0.25587619170112846  0.744123715405509  1.0000
  Br  Br2       1.0  0.7441237828035454  0.7441237102905297  0.25587602342075366  1.0000
  Br  Br3       1.0  0.7441239295603437  0.25587639261241185  0.2558759898400243  1.0000
  Br  Br4       1.0  0.2558761522345591  0.7441238929471213  0.7441238109907046  1.0000
  Br  Br5       1.0  0.2558764205744511  0.7441238814100736  0.2558759516536839  1.0000
  Br  Br6       1.0  0.74412379667219  0.2558760698004708  0.7441238266787648  1.0000
