data_image0
_chemical_formula_structural       Sc2SCl6
_chemical_formula_sum              "Sc2 S1 Cl6"
_cell_length_a       6.971106426444756
_cell_length_b       6.971107316294219
_cell_length_c       6.971107011694398
_cell_angle_alpha    59.99999894540938
_cell_angle_beta     59.99999611399793
_cell_angle_gamma    59.999996629441966

_space_group_name_H-M_alt    "P 1"
_space_group_IT_number       1

loop_
  _space_group_symop_operation_xyz
  'x, y, z'

loop_
  _atom_site_type_symbol
  _atom_site_label
  _atom_site_symmetry_multiplicity
  _atom_site_fract_x
  _atom_site_fract_y
  _atom_site_fract_z
  _atom_site_occupancy
  Sc  Sc1       1.0  0.24999974618265255  0.25000103656964323  0.2499993972686981  1.0000
  Sc  Sc2       1.0  0.7500009585914374  0.749999887577789  0.7500005810402874  1.0000
  S   S1        1.0  0.9999999579381368  0.9999999472933896  0.9999999756596184  1.0000
  Cl  Cl1       1.0  0.25716892930940294  0.25716926950227853  0.7428307957916461  1.0000
  Cl  Cl2       1.0  0.7428309088271744  0.7428307164674925  0.25716885269598305  1.0000
  Cl  Cl3       1.0  0.742831133114839  0.25716922178779267  0.2571689986750488  1.0000
  Cl  Cl4       1.0  0.257168624081785  0.7428303759099135  0.7428313205042859  1.0000
  Cl  Cl5       1.0  0.25716893795367646  0.7428305984653578  0.257169260796021  1.0000
  Cl  Cl6       1.0  0.7428307818488787  0.257168962337727  0.7428308186706274  1.0000
