data_image0
_chemical_formula_structural       Sc2SI6
_chemical_formula_sum              "Sc2 S1 I6"
_cell_length_a       7.718061896364507
_cell_length_b       7.718061938482577
_cell_length_c       7.718061691057377
_cell_angle_alpha    60.00000115757645
_cell_angle_beta     59.9999998452274
_cell_angle_gamma    59.99999984927253

_space_group_name_H-M_alt    "P 1"
_space_group_IT_number       1

loop_
  _space_group_symop_operation_xyz
  'x, y, z'

loop_
  _atom_site_type_symbol
  _atom_site_label
  _atom_site_symmetry_multiplicity
  _atom_site_fract_x
  _atom_site_fract_y
  _atom_site_fract_z
  _atom_site_occupancy
  Sc  Sc1       1.0  0.2499999176917994  0.24999996798352186  0.25000005597016767  1.0000
  Sc  Sc2       1.0  0.7500000631287892  0.7500000420069869  0.7500001019263703  1.0000
  S   S1        1.0  3.943782233726792e-09  2.8563397924146297e-08  0.9999999889290583  1.0000
  I   I1        1.0  0.26407307810419756  0.2640730216414585  0.7359269481189463  1.0000
  I   I2        1.0  0.7359269691801446  0.7359269550250844  0.2640729703538166  1.0000
  I   I3        1.0  0.7359269726937011  0.2640730463624912  0.26407303797190723  1.0000
  I   I4        1.0  0.2640730091847936  0.7359269604543057  0.7359269110852739  1.0000
  I   I5        1.0  0.264073026936717  0.7359269803059194  0.2640730375495361  1.0000
  I   I6        1.0  0.7359269619089052  0.2640730011211905  0.7359269362668699  1.0000
