data_image0
_chemical_formula_structural       Sc2SF6
_chemical_formula_sum              "Sc2 S1 F6"
_cell_length_a       5.124607298334881
_cell_length_b       5.1246071285824435
_cell_length_c       5.124606859667054
_cell_angle_alpha    60.00000054606615
_cell_angle_beta     60.00000130747757
_cell_angle_gamma    60.00000043550286

_space_group_name_H-M_alt    "P 1"
_space_group_IT_number       1

loop_
  _space_group_symop_operation_xyz
  'x, y, z'

loop_
  _atom_site_type_symbol
  _atom_site_label
  _atom_site_symmetry_multiplicity
  _atom_site_fract_x
  _atom_site_fract_y
  _atom_site_fract_z
  _atom_site_occupancy
  Sc  Sc1       1.0  0.2500000232397214  0.24999993727185704  0.24999974145732093  1.0000
  Sc  Sc2       1.0  0.7499999270108404  0.7499999695508996  0.7499997339712992  1.0000
  S   S1        1.0  0.9999999895304083  0.9999999976100703  5.131125249351078e-08  1.0000
  F   F1        1.0  0.2733516690740091  0.273351734285204  0.7266482966814544  1.0000
  F   F2        1.0  0.7266483578298129  0.7266483278829515  0.2733517925599156  1.0000
  F   F3        1.0  0.7266483336737269  0.2733516883788289  0.2733517431740042  1.0000
  F   F4        1.0  0.27335179658665826  0.7266481921547004  0.7266484632611659  1.0000
  F   F5        1.0  0.27335174431564413  0.726648444210649  0.2733516805962503  1.0000
  F   F6        1.0  0.7266481303670455  0.273351723114394  0.7266484946210574  1.0000
