data_image0
_chemical_formula_structural       Sc2TiCl6
_chemical_formula_sum              "Sc2 Ti1 Cl6"
_cell_length_a       6.727301452990371
_cell_length_b       6.727300876046315
_cell_length_c       6.727301064134514
_cell_angle_alpha    59.99999834367125
_cell_angle_beta     59.999999381433824
_cell_angle_gamma    60.00000014900874

_space_group_name_H-M_alt    "P 1"
_space_group_IT_number       1

loop_
  _space_group_symop_operation_xyz
  'x, y, z'

loop_
  _atom_site_type_symbol
  _atom_site_label
  _atom_site_symmetry_multiplicity
  _atom_site_fract_x
  _atom_site_fract_y
  _atom_site_fract_z
  _atom_site_occupancy
  Sc  Sc1       1.0  0.2499995071447654  0.2500000378341764  0.25000036968790773  1.0000
  Sc  Sc2       1.0  0.7500003775331091  0.7499999004971636  0.7499993094129772  1.0000
  Ti  Ti1       1.0  3.564661256223587e-08  0.9999999908972055  3.2808977326006724e-08  1.0000
  Cl  Cl1       1.0  0.25164740089074983  0.25164750251450596  0.7483524567494381  1.0000
  Cl  Cl2       1.0  0.7483526410748184  0.7483524685869034  0.2516477025904094  1.0000
  Cl  Cl3       1.0  0.7483526183005446  0.2516473870091157  0.25164762336189683  1.0000
  Cl  Cl4       1.0  0.2516474191909501  0.7483526387090671  0.7483524752310748  1.0000
  Cl  Cl5       1.0  0.25164741840758664  0.7483525142798396  0.25164755494095137  1.0000
  Cl  Cl6       1.0  0.7483525471659647  0.25164756241399633  0.748352497636918  1.0000
