data_image0
_chemical_formula_structural       Sc2TiBr6
_chemical_formula_sum              "Sc2 Ti1 Br6"
_cell_length_a       7.1226035710953735
_cell_length_b       7.122602941288593
_cell_length_c       7.1226038352002945
_cell_angle_alpha    59.99999860242833
_cell_angle_beta     59.999997438877244
_cell_angle_gamma    59.99999644553433

_space_group_name_H-M_alt    "P 1"
_space_group_IT_number       1

loop_
  _space_group_symop_operation_xyz
  'x, y, z'

loop_
  _atom_site_type_symbol
  _atom_site_label
  _atom_site_symmetry_multiplicity
  _atom_site_fract_x
  _atom_site_fract_y
  _atom_site_fract_z
  _atom_site_occupancy
  Sc  Sc1       1.0  0.2500001066867706  0.24999991437243435  0.24999996862165716  1.0000
  Sc  Sc2       1.0  0.7499999087164606  0.7500001454846993  0.7500002669643692  1.0000
  Ti  Ti1       1.0  0.999999968264836  0.9999999638901058  0.9999999903991197  1.0000
  Br  Br1       1.0  0.2503988005184231  0.25039876454835697  0.749601261542208  1.0000
  Br  Br2       1.0  0.749601221091377  0.7496012815526155  0.2503986605189225  1.0000
  Br  Br3       1.0  0.749601256885365  0.2503987723822607  0.2503986691815164  1.0000
  Br  Br4       1.0  0.250398780725557  0.7496011430352896  0.7496013130287235  1.0000
  Br  Br5       1.0  0.2503987391535829  0.7496012246645578  0.25039867661589565  1.0000
  Br  Br6       1.0  0.7496012123859639  0.250398783607  0.7496011983084414  1.0000
