data_image0
_chemical_formula_structural       Sc2TiF6
_chemical_formula_sum              "Sc2 Ti1 F6"
_cell_length_a       5.512405020146926
_cell_length_b       5.512405192297273
_cell_length_c       5.512404824142563
_cell_angle_alpha    59.99999666023462
_cell_angle_beta     59.999997069665405
_cell_angle_gamma    59.999995355291155

_space_group_name_H-M_alt    "P 1"
_space_group_IT_number       1

loop_
  _space_group_symop_operation_xyz
  'x, y, z'

loop_
  _atom_site_type_symbol
  _atom_site_label
  _atom_site_symmetry_multiplicity
  _atom_site_fract_x
  _atom_site_fract_y
  _atom_site_fract_z
  _atom_site_occupancy
  Sc  Sc1       1.0  0.24999997657608566  0.25000030967998227  0.24999977294591735  1.0000
  Sc  Sc2       1.0  0.7499998357419695  0.7499995959613265  0.7500000033448201  1.0000
  Ti  Ti1       1.0  0.9999998769589908  1.1775527456277494e-07  1.749814426136181e-07  1.0000
  F   F1        1.0  0.25411728678944207  0.2541174080855115  0.745882771138397  1.0000
  F   F2        1.0  0.7458829066207848  0.7458825419917257  0.2541170663159088  1.0000
  F   F3        1.0  0.7458826550414888  0.25411756074409064  0.25411742452133745  1.0000
  F   F4        1.0  0.25411722011473503  0.7458825648551585  0.7458828580015637  1.0000
  F   F5        1.0  0.2541175346134572  0.7458825370574556  0.25411738781446613  1.0000
  F   F6        1.0  0.7458827054943815  0.25411741746336924  0.7458825546837381  1.0000
