data_image0
_chemical_formula_structural       Sc2TiI6
_chemical_formula_sum              "Sc2 Ti1 I6"
_cell_length_a       7.831855922385132
_cell_length_b       7.831855586256855
_cell_length_c       7.831855878370875
_cell_angle_alpha    59.9999991262273
_cell_angle_beta     59.999999650387714
_cell_angle_gamma    59.99999895310981

_space_group_name_H-M_alt    "P 1"
_space_group_IT_number       1

loop_
  _space_group_symop_operation_xyz
  'x, y, z'

loop_
  _atom_site_type_symbol
  _atom_site_label
  _atom_site_symmetry_multiplicity
  _atom_site_fract_x
  _atom_site_fract_y
  _atom_site_fract_z
  _atom_site_occupancy
  Sc  Sc1       1.0  0.24999997994547304  0.25000002471017546  0.2500000549022887  1.0000
  Sc  Sc2       1.0  0.7500000397073685  0.7499999912491714  0.7499998740311863  1.0000
  Ti  Ti1       1.0  0.9999999924646552  0.9999999827982097  1.2368567540370723e-08  1.0000
  I   I1        1.0  0.250696147756238  0.2506961810914483  0.7493038099149758  1.0000
  I   I2        1.0  0.7493038135020595  0.7493038817818725  0.2506961834932669  1.0000
  I   I3        1.0  0.7493038443594396  0.25069617889939627  0.250696155779486  1.0000
  I   I4        1.0  0.2506961575269447  0.7493038151667634  0.749303870870842  1.0000
  I   I5        1.0  0.25069616750276924  0.7493037667725382  0.25069620236908113  1.0000
  I   I6        1.0  0.7493038563508927  0.2506961835072461  0.7493038377444687  1.0000
