data_image0
_chemical_formula_structural       Sc2VCl6
_chemical_formula_sum              "Sc2 V1 Cl6"
_cell_length_a       6.680791400236875
_cell_length_b       6.68079114857602
_cell_length_c       6.680790999571322
_cell_angle_alpha    59.99999924287328
_cell_angle_beta     60.0000001554194
_cell_angle_gamma    59.99999846053325

_space_group_name_H-M_alt    "P 1"
_space_group_IT_number       1

loop_
  _space_group_symop_operation_xyz
  'x, y, z'

loop_
  _atom_site_type_symbol
  _atom_site_label
  _atom_site_symmetry_multiplicity
  _atom_site_fract_x
  _atom_site_fract_y
  _atom_site_fract_z
  _atom_site_occupancy
  Sc  Sc1       1.0  0.2499998682144633  0.24999976214350014  0.2500002474281142  1.0000
  Sc  Sc2       1.0  0.7500001681515724  0.7500002507112231  0.7499997374004436  1.0000
  V   V1        1.0  1.4141644229322809e-08  0.9999999835009  7.16604284529331e-09  1.0000
  Cl  Cl1       1.0  0.24926185703334858  0.24926175422703442  0.7507381612304841  1.0000
  Cl  Cl2       1.0  0.750738108154211  0.7507382751267891  0.24926183596947515  1.0000
  Cl  Cl3       1.0  0.750738250411259  0.2492617315401064  0.24926187370466607  1.0000
  Cl  Cl4       1.0  0.24926177225049986  0.7507382446499509  0.7507381153527616  1.0000
  Cl  Cl5       1.0  0.2492617040956686  0.7507382020194353  0.2492619607854223  1.0000
  Cl  Cl6       1.0  0.7507382620175019  0.2492618090020551  0.7507380540988707  1.0000
