data_image0
_chemical_formula_structural       Sc2VI6
_chemical_formula_sum              "Sc2 V1 I6"
_cell_length_a       7.706660540893796
_cell_length_b       7.706660498135884
_cell_length_c       7.706660573218599
_cell_angle_alpha    60.000000297434084
_cell_angle_beta     60.00000038200193
_cell_angle_gamma    60.000001236281776

_space_group_name_H-M_alt    "P 1"
_space_group_IT_number       1

loop_
  _space_group_symop_operation_xyz
  'x, y, z'

loop_
  _atom_site_type_symbol
  _atom_site_label
  _atom_site_symmetry_multiplicity
  _atom_site_fract_x
  _atom_site_fract_y
  _atom_site_fract_z
  _atom_site_occupancy
  Sc  Sc1       1.0  0.25000004753189004  0.25000004115160335  0.2499999530626782  1.0000
  Sc  Sc2       1.0  0.7500000579967858  0.7499999502316733  0.7500000633586191  1.0000
  V   V1        1.0  0.9999999709269858  0.9999999793403594  2.8074862425133966e-09  1.0000
  I   I1        1.0  0.24915155953312104  0.24915160469442213  0.7508484118305738  1.0000
  I   I2        1.0  0.75084841078365  0.7508484057592892  0.24915156274788414  1.0000
  I   I3        1.0  0.7508483853643538  0.24915163678739877  0.24915156851095585  1.0000
  I   I4        1.0  0.2491515491434455  0.7508484181639985  0.7508484341626169  1.0000
  I   I5        1.0  0.2491516086213276  0.7508483981454525  0.2491515726859357  1.0000
  I   I6        1.0  0.7508484064943058  0.24915156781057313  0.7508484289910905  1.0000
