data_image0
_chemical_formula_structural       Sc2VBr6
_chemical_formula_sum              "Sc2 V1 Br6"
_cell_length_a       7.034708168301959
_cell_length_b       7.034707938874655
_cell_length_c       7.034708016721064
_cell_angle_alpha    59.999999176867625
_cell_angle_beta     59.999999093186474
_cell_angle_gamma    59.99999833083233

_space_group_name_H-M_alt    "P 1"
_space_group_IT_number       1

loop_
  _space_group_symop_operation_xyz
  'x, y, z'

loop_
  _atom_site_type_symbol
  _atom_site_label
  _atom_site_symmetry_multiplicity
  _atom_site_fract_x
  _atom_site_fract_y
  _atom_site_fract_z
  _atom_site_occupancy
  Sc  Sc1       1.0  0.24999997522943396  0.24999980486416437  0.2500001673881387  1.0000
  Sc  Sc2       1.0  0.7499998958774398  0.7500003756262481  0.7499998716562862  1.0000
  V   V1        1.0  3.4071824706642754e-08  2.0892037907617278e-08  0.9999999398230367  1.0000
  Br  Br1       1.0  0.25020012071562314  0.2502000154748444  0.7497999056997535  1.0000
  Br  Br2       1.0  0.7497998973778934  0.7497999456491666  0.25020009419382494  1.0000
  Br  Br3       1.0  0.7497999662602911  0.2501999893958548  0.2502001195766631  1.0000
  Br  Br4       1.0  0.25020005753699925  0.749799959541134  0.7497999091459554  1.0000
  Br  Br5       1.0  0.2502000879820596  0.7497999172881312  0.25020008494380697  1.0000
  Br  Br6       1.0  0.7497999617311405  0.2501999637497333  0.7497999093310176  1.0000
