data_image0
_chemical_formula_structural       Sc2VF6
_chemical_formula_sum              "Sc2 V1 F6"
_cell_length_a       5.601581677157337
_cell_length_b       5.601580922103628
_cell_length_c       5.60158367673293
_cell_angle_alpha    59.999994724381935
_cell_angle_beta     59.99999545705936
_cell_angle_gamma    60.00000070165897

_space_group_name_H-M_alt    "P 1"
_space_group_IT_number       1

loop_
  _space_group_symop_operation_xyz
  'x, y, z'

loop_
  _atom_site_type_symbol
  _atom_site_label
  _atom_site_symmetry_multiplicity
  _atom_site_fract_x
  _atom_site_fract_y
  _atom_site_fract_z
  _atom_site_occupancy
  Sc  Sc1       1.0  0.2499993898216167  0.2500002624294458  0.25000155827881526  1.0000
  Sc  Sc2       1.0  0.7499999375165771  0.7500014322841495  0.7499997657884702  1.0000
  V   V1        1.0  5.308327976832779e-07  2.689305742145866e-07  0.9999994126713755  1.0000
  F   F1        1.0  0.24702359449810848  0.2470225280330735  0.7529764074899061  1.0000
  F   F2        1.0  0.7529761742701602  0.7529765560861226  0.24702323051431394  1.0000
  F   F3        1.0  0.7529770605468926  0.24702296390731673  0.2470232686928026  1.0000
  F   F4        1.0  0.24702278468873223  0.7529768308008261  0.7529767809127822  1.0000
  F   F5        1.0  0.2470228698304298  0.7529766745125605  0.24702328199329096  1.0000
  F   F6        1.0  0.7529776838283033  0.24702221938754948  0.7529763693017081  1.0000
