data_image0
_chemical_formula_structural       Sc2ZnF6
_chemical_formula_sum              "Sc2 Zn1 F6"
_cell_length_a       5.395235829338452
_cell_length_b       5.395236339207367
_cell_length_c       5.395236111793938
_cell_angle_alpha    59.999998715740944
_cell_angle_beta     60.0000000182518
_cell_angle_gamma    60.00000050518896

_space_group_name_H-M_alt    "P 1"
_space_group_IT_number       1

loop_
  _space_group_symop_operation_xyz
  'x, y, z'

loop_
  _atom_site_type_symbol
  _atom_site_label
  _atom_site_symmetry_multiplicity
  _atom_site_fract_x
  _atom_site_fract_y
  _atom_site_fract_z
  _atom_site_occupancy
  Sc  Sc1       1.0  0.2499999386651096  0.25000010488767277  0.24999985860659077  1.0000
  Sc  Sc2       1.0  0.7499999647761215  0.7500001444093631  0.7499998126816233  1.0000
  Zn  Zn1       1.0  4.133563424737711e-08  0.9999999273584422  6.940408681539173e-08  1.0000
  F   F1        1.0  0.25611658965256473  0.2561166075038334  0.7438834048524968  1.0000
  F   F2        1.0  0.743883335216989  0.7438833784675541  0.2561166338981567  1.0000
  F   F3        1.0  0.7438833676087951  0.2561166142064915  0.2561167054852823  1.0000
  F   F4        1.0  0.2561167364571479  0.7438832900431396  0.7438834346605057  1.0000
  F   F5        1.0  0.2561167008304497  0.7438832876494829  0.25611662651601785  1.0000
  F   F6        1.0  0.7438833385317819  0.256116605249911  0.7438834052312712  1.0000
