data_image0
_chemical_formula_structural       Sc2ZnBr6
_chemical_formula_sum              "Sc2 Zn1 Br6"
_cell_length_a       6.989187218847767
_cell_length_b       6.98918707137013
_cell_length_c       6.989187267037789
_cell_angle_alpha    59.999999625029886
_cell_angle_beta     60.00000017001499
_cell_angle_gamma    59.99999926113525

_space_group_name_H-M_alt    "P 1"
_space_group_IT_number       1

loop_
  _space_group_symop_operation_xyz
  'x, y, z'

loop_
  _atom_site_type_symbol
  _atom_site_label
  _atom_site_symmetry_multiplicity
  _atom_site_fract_x
  _atom_site_fract_y
  _atom_site_fract_z
  _atom_site_occupancy
  Sc  Sc1       1.0  0.24999988288227049  0.2499998973776037  0.25000010686767205  1.0000
  Sc  Sc2       1.0  0.7500001526562027  0.7500000040497565  0.7500000056406496  1.0000
  Zn  Zn1       1.0  3.020788861087477e-09  0.9999999859812608  0.9999999954835045  1.0000
  Br  Br1       1.0  0.2524270243846795  0.2524271603160179  0.7475728869918173  1.0000
  Br  Br2       1.0  0.7475729565477193  0.7475728900604454  0.25242705243621627  1.0000
  Br  Br3       1.0  0.7475729392587022  0.252427086000653  0.25242704965119983  1.0000
  Br  Br4       1.0  0.2524270334130757  0.7475729643758104  0.7475729110765225  1.0000
  Br  Br5       1.0  0.25242707341257004  0.7475729672841862  0.25242705538216004  1.0000
  Br  Br6       1.0  0.7475729359237901  0.25242703753137496  0.7475729398401343  1.0000
