data_image0
_chemical_formula_structural       Sc2ZnI6
_chemical_formula_sum              "Sc2 Zn1 I6"
_cell_length_a       7.6592060847980825
_cell_length_b       7.659206216221327
_cell_length_c       7.659206015357237
_cell_angle_alpha    60.00000080092487
_cell_angle_beta     60.00000042927759
_cell_angle_gamma    60.000000391797045

_space_group_name_H-M_alt    "P 1"
_space_group_IT_number       1

loop_
  _space_group_symop_operation_xyz
  'x, y, z'

loop_
  _atom_site_type_symbol
  _atom_site_label
  _atom_site_symmetry_multiplicity
  _atom_site_fract_x
  _atom_site_fract_y
  _atom_site_fract_z
  _atom_site_occupancy
  Sc  Sc1       1.0  0.2500000338649709  0.2499999125424513  0.2500000167730197  1.0000
  Sc  Sc2       1.0  0.7499999697439479  0.7500000110647905  0.7499999690808761  1.0000
  Zn  Zn1       1.0  8.619714301888932e-09  0.9999999696180627  0.9999999717125607  1.0000
  I   I1        1.0  0.2534550960192878  0.25345509933026794  0.7465449108853326  1.0000
  I   I2        1.0  0.7465448466899247  0.7465449346113782  0.25345514033888084  1.0000
  I   I3        1.0  0.746544908570909  0.2534551215878848  0.2534550941110716  1.0000
  I   I4        1.0  0.2534551428682764  0.746544902759465  0.7465448788216998  1.0000
  I   I5        1.0  0.2534551096298884  0.7465449417499564  0.2534551114938885  1.0000
  I   I6        1.0  0.746544880956662  0.25345511138028154  0.7465449061973601  1.0000
