data_image0
_chemical_formula_structural       Sc2ZnCl6
_chemical_formula_sum              "Sc2 Zn1 Cl6"
_cell_length_a       6.621872991961675
_cell_length_b       6.621872885620538
_cell_length_c       6.6218729093678785
_cell_angle_alpha    59.99999980610821
_cell_angle_beta     60.000000331499464
_cell_angle_gamma    59.9999982412538

_space_group_name_H-M_alt    "P 1"
_space_group_IT_number       1

loop_
  _space_group_symop_operation_xyz
  'x, y, z'

loop_
  _atom_site_type_symbol
  _atom_site_label
  _atom_site_symmetry_multiplicity
  _atom_site_fract_x
  _atom_site_fract_y
  _atom_site_fract_z
  _atom_site_occupancy
  Sc  Sc1       1.0  0.2500000774483473  0.2499997849593828  0.25000008289483366  1.0000
  Sc  Sc2       1.0  0.7499997337691174  0.7500003536322077  0.7500002115261283  1.0000
  Zn  Zn1       1.0  4.9460147772604756e-08  0.9999999667081975  1.758832250028826e-08  1.0000
  Cl  Cl1       1.0  0.25105104897359726  0.25105085308743136  0.748949021585636  1.0000
  Cl  Cl2       1.0  0.7489489835996522  0.7489491079478798  0.2510509126626961  1.0000
  Cl  Cl3       1.0  0.7489490639395169  0.25105096340206  0.25105092525299666  1.0000
  Cl  Cl4       1.0  0.25105093474356366  0.7489490679159442  0.7489490134512748  1.0000
  Cl  Cl5       1.0  0.25105104400135725  0.7489490552413429  0.25105082589823946  1.0000
  Cl  Cl6       1.0  0.7489490664612033  0.2510508447589974  0.7489489821314742  1.0000
