data_image0
_chemical_formula_structural       Se2AgF6
_chemical_formula_sum              "Se2 Ag1 F6"
_cell_length_a       5.189573883023741
_cell_length_b       5.1895736142835425
_cell_length_c       5.189573880091992
_cell_angle_alpha    59.99999875283591
_cell_angle_beta     60.0000004208257
_cell_angle_gamma    59.99999844179922

_space_group_name_H-M_alt    "P 1"
_space_group_IT_number       1

loop_
  _space_group_symop_operation_xyz
  'x, y, z'

loop_
  _atom_site_type_symbol
  _atom_site_label
  _atom_site_symmetry_multiplicity
  _atom_site_fract_x
  _atom_site_fract_y
  _atom_site_fract_z
  _atom_site_occupancy
  Se  Se1       1.0  0.25000014193097087  0.24999965557889717  0.2500001567951967  1.0000
  Se  Se2       1.0  0.7500000158450935  0.750000356782962  0.7499997240532835  1.0000
  Ag  Ag1       1.0  0.999999997123262  0.9999999952799787  9.57920103471175e-09  1.0000
  F   F1        1.0  0.26909120384668694  0.2690909894053702  0.7309088569099329  1.0000
  F   F2        1.0  0.7309087638794036  0.7309090323965322  0.2690911893941908  1.0000
  F   F3        1.0  0.7309088880702039  0.2690909878096186  0.26909130123836883  1.0000
  F   F4        1.0  0.26909102573821836  0.7309090221922305  0.7309087759976749  1.0000
  F   F5        1.0  0.26909109788587804  0.730908940312576  0.26909110847367707  1.0000
  F   F6        1.0  0.7309088565131355  0.26909104136914497  0.7309088855495157  1.0000
