data_image0
_chemical_formula_structural       Se2AuCl6
_chemical_formula_sum              "Se2 Au1 Cl6"
_cell_length_a       6.793695017964054
_cell_length_b       6.79369459809598
_cell_length_c       6.793694892196797
_cell_angle_alpha    59.99999829058394
_cell_angle_beta     59.999999967837795
_cell_angle_gamma    59.99999822773594

_space_group_name_H-M_alt    "P 1"
_space_group_IT_number       1

loop_
  _space_group_symop_operation_xyz
  'x, y, z'

loop_
  _atom_site_type_symbol
  _atom_site_label
  _atom_site_symmetry_multiplicity
  _atom_site_fract_x
  _atom_site_fract_y
  _atom_site_fract_z
  _atom_site_occupancy
  Se  Se1       1.0  0.2499999924107353  0.24999993580592242  0.2500001009619832  1.0000
  Se  Se2       1.0  0.7499999125034149  0.7500000525940915  0.7500001184571866  1.0000
  Au  Au1       1.0  4.978199908973721e-10  3.60553415224591e-09  3.769105559696438e-08  1.0000
  Cl  Cl1       1.0  0.2540084617337796  0.2540084655998305  0.7459915533754243  1.0000
  Cl  Cl2       1.0  0.745991457514057  0.7459916327689758  0.2540083595482975  1.0000
  Cl  Cl3       1.0  0.7459914774242364  0.2540084105020029  0.25400837889796857  1.0000
  Cl  Cl4       1.0  0.25400861119221413  0.7459915111956288  0.7459915494526577  1.0000
  Cl  Cl5       1.0  0.2540083816557649  0.7459916179076721  0.25400846280811795  1.0000
  Cl  Cl6       1.0  0.7459917074231251  0.2540083686895749  0.7459914299175747  1.0000
