data_image0
_chemical_formula_structural       Se2AgBr6
_chemical_formula_sum              "Se2 Ag1 Br6"
_cell_length_a       7.086258436623166
_cell_length_b       7.086258314511303
_cell_length_c       7.086258294514847
_cell_angle_alpha    60.000000924632644
_cell_angle_beta     60.00000083955557
_cell_angle_gamma    60.00000125898155

_space_group_name_H-M_alt    "P 1"
_space_group_IT_number       1

loop_
  _space_group_symop_operation_xyz
  'x, y, z'

loop_
  _atom_site_type_symbol
  _atom_site_label
  _atom_site_symmetry_multiplicity
  _atom_site_fract_x
  _atom_site_fract_y
  _atom_site_fract_z
  _atom_site_occupancy
  Se  Se1       1.0  0.2500000103311567  0.2500000006520547  0.24999999821006985  1.0000
  Se  Se2       1.0  0.7499999768417945  0.7499999933144739  0.7499999978032529  1.0000
  Ag  Ag1       1.0  0.9999999770882593  5.185013121984673e-09  0.9999999820509062  1.0000
  Br  Br1       1.0  0.2546078780678365  0.2546079162977733  0.7453920956515263  1.0000
  Br  Br2       1.0  0.7453921174333089  0.7453920966804718  0.2546078951589331  1.0000
  Br  Br3       1.0  0.7453921079010919  0.25460789864819705  0.25460789360468006  1.0000
  Br  Br4       1.0  0.25460789048061655  0.745392105688359  0.7453921254876179  1.0000
  Br  Br5       1.0  0.2546079041769034  0.7453920962050798  0.2546078962958515  1.0000
  Br  Br6       1.0  0.7453921332307398  0.25460788393474654  0.7453921196153898  1.0000
