data_image0
_chemical_formula_structural       Se2AgCl6
_chemical_formula_sum              "Se2 Ag1 Cl6"
_cell_length_a       6.7462239745485135
_cell_length_b       6.7462237027143415
_cell_length_c       6.746223399040784
_cell_angle_alpha    60.00000244756739
_cell_angle_beta     60.00000106279014
_cell_angle_gamma    60.00000043351171

_space_group_name_H-M_alt    "P 1"
_space_group_IT_number       1

loop_
  _space_group_symop_operation_xyz
  'x, y, z'

loop_
  _atom_site_type_symbol
  _atom_site_label
  _atom_site_symmetry_multiplicity
  _atom_site_fract_x
  _atom_site_fract_y
  _atom_site_fract_z
  _atom_site_occupancy
  Se  Se1       1.0  0.2499999668372926  0.25000008874180374  0.24999993519334196  1.0000
  Se  Se2       1.0  0.7499997394974883  0.7500003025344629  0.7499999672475226  1.0000
  Ag  Ag1       1.0  1.7116250163871536e-08  0.9999999999999994  0.9999999632779693  1.0000
  Cl  Cl1       1.0  0.25483108322424036  0.25483096203401867  0.7451689389133079  1.0000
  Cl  Cl2       1.0  0.745168963439413  0.7451688755292447  0.2548310983835192  1.0000
  Cl  Cl3       1.0  0.7451690642464432  0.25483093972835935  0.25483094481204893  1.0000
  Cl  Cl4       1.0  0.25483105529028816  0.7451689359594071  0.7451691214777042  1.0000
  Cl  Cl5       1.0  0.25483106017039114  0.7451689782045261  0.2548309614000264  1.0000
  Cl  Cl6       1.0  0.7451690441515575  0.25483091745321673  0.7451690595251164  1.0000
