data_image0
_chemical_formula_structural       Se2AgI6
_chemical_formula_sum              "Se2 Ag1 I6"
_cell_length_a       7.390148993840134
_cell_length_b       7.390149022520655
_cell_length_c       7.390148955118557
_cell_angle_alpha    60.00000049353709
_cell_angle_beta     60.000000239305145
_cell_angle_gamma    60.00000016249766

_space_group_name_H-M_alt    "P 1"
_space_group_IT_number       1

loop_
  _space_group_symop_operation_xyz
  'x, y, z'

loop_
  _atom_site_type_symbol
  _atom_site_label
  _atom_site_symmetry_multiplicity
  _atom_site_fract_x
  _atom_site_fract_y
  _atom_site_fract_z
  _atom_site_occupancy
  Se  Se1       1.0  0.24999999519933874  0.25000001368669256  0.24999999231489684  1.0000
  Se  Se2       1.0  0.749999975245559  0.7499999830557394  0.7500000192420042  1.0000
  Ag  Ag1       1.0  2.2126624396479595e-08  4.143167006914465e-08  0.999999976339769  1.0000
  I   I1        1.0  0.26119240481382117  0.2611924057608858  0.7388075972352441  1.0000
  I   I2        1.0  0.7388075749274744  0.7388075677798108  0.26119243074639464  1.0000
  I   I3        1.0  0.7388076050729909  0.26119240925313314  0.2611924085357795  1.0000
  I   I4        1.0  0.26119243257507263  0.7388075593157629  0.7388075659153216  1.0000
  I   I5        1.0  0.2611924085580746  0.738807588226995  0.2611924339984123  1.0000
  I   I6        1.0  0.7388075807151757  0.26119243171717227  0.7388075768407355  1.0000
