data_image0
_chemical_formula_structural       Se2AuI6
_chemical_formula_sum              "Se2 Au1 I6"
_cell_length_a       7.468873678423298
_cell_length_b       7.468873544850413
_cell_length_c       7.46887359348801
_cell_angle_alpha    60.00000017803505
_cell_angle_beta     59.999999764410305
_cell_angle_gamma    59.99999929902873

_space_group_name_H-M_alt    "P 1"
_space_group_IT_number       1

loop_
  _space_group_symop_operation_xyz
  'x, y, z'

loop_
  _atom_site_type_symbol
  _atom_site_label
  _atom_site_symmetry_multiplicity
  _atom_site_fract_x
  _atom_site_fract_y
  _atom_site_fract_z
  _atom_site_occupancy
  Se  Se1       1.0  0.2500000056779727  0.25000000772312275  0.249999977256231  1.0000
  Se  Se2       1.0  0.7500000019488745  0.7500000034917851  0.750000029483405  1.0000
  Au  Au1       1.0  5.449904922052993e-09  1.1478590483262842e-08  0.9999999888579724  1.0000
  I   I1        1.0  0.2643315505026257  0.26433157080504427  0.7356684518319291  1.0000
  I   I2        1.0  0.7356684342153121  0.7356684256516759  0.26433155365790584  1.0000
  I   I3        1.0  0.7356684560340696  0.26433153234257367  0.2643315504563427  1.0000
  I   I4        1.0  0.2643315598855527  0.7356684493559584  0.7356684494895239  1.0000
  I   I5        1.0  0.2643315557659931  0.7356684379650789  0.2643315513598531  1.0000
  I   I6        1.0  0.7356684294047627  0.26433156177123834  0.7356684482471044  1.0000
