data_image0
_chemical_formula_structural       Se2AuBr6
_chemical_formula_sum              "Se2 Au1 Br6"
_cell_length_a       7.1385233927555065
_cell_length_b       7.1385234696628785
_cell_length_c       7.13852345229818
_cell_angle_alpha    59.999999332862096
_cell_angle_beta     59.999999498482815
_cell_angle_gamma    60.000000060577605

_space_group_name_H-M_alt    "P 1"
_space_group_IT_number       1

loop_
  _space_group_symop_operation_xyz
  'x, y, z'

loop_
  _atom_site_type_symbol
  _atom_site_label
  _atom_site_symmetry_multiplicity
  _atom_site_fract_x
  _atom_site_fract_y
  _atom_site_fract_z
  _atom_site_occupancy
  Se  Se1       1.0  0.25000001177260317  0.2500000407918584  0.24999998362527734  1.0000
  Se  Se2       1.0  0.7499999712545566  0.7500000039933954  0.7500000519044986  1.0000
  Au  Au1       1.0  1.2744254268156228e-08  1.0294102790330546e-08  0.9999999618646729  1.0000
  Br  Br1       1.0  0.25604493235723425  0.256044907299102  0.7439550625573362  1.0000
  Br  Br2       1.0  0.7439550996229465  0.7439550585646999  0.2560449137116099  1.0000
  Br  Br3       1.0  0.743955077390238  0.25604491424680526  0.2560449197278261  1.0000
  Br  Br4       1.0  0.25604491766354276  0.7439550653424662  0.7439550863526341  1.0000
  Br  Br5       1.0  0.2560449168629723  0.7439550759243263  0.2560449368397572  1.0000
  Br  Br6       1.0  0.7439550670472814  0.2560449225374666  0.7439550849881047  1.0000
