data_image0
_chemical_formula_structural       Se2BeCl6
_chemical_formula_sum              "Se2 Be1 Cl6"
_cell_length_a       6.417777538792031
_cell_length_b       6.417777502312345
_cell_length_c       6.417777233564193
_cell_angle_alpha    60.00000044530441
_cell_angle_beta     60.00000123766718
_cell_angle_gamma    60.000000091248125

_space_group_name_H-M_alt    "P 1"
_space_group_IT_number       1

loop_
  _space_group_symop_operation_xyz
  'x, y, z'

loop_
  _atom_site_type_symbol
  _atom_site_label
  _atom_site_symmetry_multiplicity
  _atom_site_fract_x
  _atom_site_fract_y
  _atom_site_fract_z
  _atom_site_occupancy
  Se  Se1       1.0  0.24999998376058377  0.24999995656653254  0.250000073114887  1.0000
  Se  Se2       1.0  0.75000009405318  0.7500000567191663  0.7499998690267069  1.0000
  Be  Be1       1.0  2.644262124562459e-08  2.862544390678426e-08  0.9999999724659672  1.0000
  Cl  Cl1       1.0  0.24314732916619003  0.24314744235133207  0.7568526565289738  1.0000
  Cl  Cl2       1.0  0.7568526725907302  0.7568525022333007  0.24314743745834105  1.0000
  Cl  Cl3       1.0  0.7568525113514832  0.2431474395267281  0.24314743729011987  1.0000
  Cl  Cl4       1.0  0.2431474852415656  0.7568526500934881  0.7568525213181192  1.0000
  Cl  Cl5       1.0  0.2431473702586055  0.7568525900313684  0.24314741777265275  1.0000
  Cl  Cl6       1.0  0.7568525330868214  0.24314732592782184  0.756852633777443  1.0000
