data_image0
_chemical_formula_structural       Se2BeI6
_chemical_formula_sum              "Se2 Be1 I6"
_cell_length_a       7.370976947084065
_cell_length_b       7.37097691645897
_cell_length_c       7.37097687220785
_cell_angle_alpha    60.00000005399531
_cell_angle_beta     59.9999998365691
_cell_angle_gamma    60.00000006693436

_space_group_name_H-M_alt    "P 1"
_space_group_IT_number       1

loop_
  _space_group_symop_operation_xyz
  'x, y, z'

loop_
  _atom_site_type_symbol
  _atom_site_label
  _atom_site_symmetry_multiplicity
  _atom_site_fract_x
  _atom_site_fract_y
  _atom_site_fract_z
  _atom_site_occupancy
  Se  Se1       1.0  0.2500000516672972  0.25000003642946356  0.24999996204668157  1.0000
  Se  Se2       1.0  0.7499999773193267  0.7499999796853527  0.7499999733059052  1.0000
  Be  Be1       1.0  0.9999999685739688  4.98473217238642e-09  2.543070016075316e-08  1.0000
  I   I1        1.0  0.2480267576900482  0.24802677713162347  0.7519732378657287  1.0000
  I   I2        1.0  0.7519732624511333  0.7519732373216154  0.24802676921730993  1.0000
  I   I3        1.0  0.7519732435179018  0.24802675458336107  0.24802676085810935  1.0000
  I   I4        1.0  0.24802676227185452  0.7519732183304425  0.7519732456802414  1.0000
  I   I5        1.0  0.24802674318693904  0.7519732314980013  0.2480267874845299  1.0000
  I   I6        1.0  0.7519732334709457  0.24802676301630835  0.7519732350295543  1.0000
