data_image0
_chemical_formula_structural       Se2BeBr6
_chemical_formula_sum              "Se2 Be1 Br6"
_cell_length_a       6.968447221438313
_cell_length_b       6.968447318474174
_cell_length_c       6.968447410312692
_cell_angle_alpha    59.999999190619334
_cell_angle_beta     59.99999977742495
_cell_angle_gamma    60.00000089990978

_space_group_name_H-M_alt    "P 1"
_space_group_IT_number       1

loop_
  _space_group_symop_operation_xyz
  'x, y, z'

loop_
  _atom_site_type_symbol
  _atom_site_label
  _atom_site_symmetry_multiplicity
  _atom_site_fract_x
  _atom_site_fract_y
  _atom_site_fract_z
  _atom_site_occupancy
  Se  Se1       1.0  0.24999997336815885  0.24999999654782737  0.25000003496057205  1.0000
  Se  Se2       1.0  0.7499999998090039  0.7500000388551012  0.7499999715417287  1.0000
  Be  Be1       1.0  0.999999996318343  0.9999999613337287  5.417988164632251e-08  1.0000
  Br  Br1       1.0  0.24548935441634798  0.24548934234810468  0.754510647825497  1.0000
  Br  Br2       1.0  0.7545106001485395  0.7545106842670349  0.24548934224099808  1.0000
  Br  Br3       1.0  0.7545106319776561  0.2454893469716845  0.24548937940068105  1.0000
  Br  Br4       1.0  0.24548940585861098  0.7545106286742808  0.7545106160403104  1.0000
  Br  Br5       1.0  0.24548940232215533  0.7545106338830614  0.2454893309578723  1.0000
  Br  Br6       1.0  0.7545106268268393  0.24548936285359724  0.7545106209703716  1.0000
