data_image0
_chemical_formula_structural       Se2CrS6
_chemical_formula_sum              "Se2 Cr1 S6"
_cell_length_a       6.1444282075272145
_cell_length_b       6.144427888678096
_cell_length_c       6.1444279853915384
_cell_angle_alpha    59.999999443070074
_cell_angle_beta     60.00000226632927
_cell_angle_gamma    60.00000206107758

_space_group_name_H-M_alt    "P 1"
_space_group_IT_number       1

loop_
  _space_group_symop_operation_xyz
  'x, y, z'

loop_
  _atom_site_type_symbol
  _atom_site_label
  _atom_site_symmetry_multiplicity
  _atom_site_fract_x
  _atom_site_fract_y
  _atom_site_fract_z
  _atom_site_occupancy
  Se  Se1       1.0  0.2500005040737385  0.24999979359243998  0.2500001049431773  1.0000
  Se  Se2       1.0  0.7500000840612996  0.7500001980143083  0.7499996486789778  1.0000
  Cr  Cr1       1.0  0.9999999921213957  5.182478656385085e-08  7.73038474500052e-08  1.0000
  S   S1        1.0  0.25601242660270834  0.25601255121267363  0.7439874829209208  1.0000
  S   S2        1.0  0.7439872889641218  0.7439875041784004  0.2560126962505487  1.0000
  S   S3        1.0  0.7439872563083506  0.2560125878327674  0.2560126290723881  1.0000
  S   S4        1.0  0.25601254065638657  0.7439874037739563  0.7439873736607516  1.0000
  S   S5        1.0  0.2560125301899235  0.7439873122650186  0.2560126795414118  1.0000
  S   S6        1.0  0.7439873734955725  0.2560126016045278  0.743987302189975  1.0000
