data_image0
_chemical_formula_structural       Se2CdI6
_chemical_formula_sum              "Se2 Cd1 I6"
_cell_length_a       7.635613563213268
_cell_length_b       7.635613338005921
_cell_length_c       7.6356135438085255
_cell_angle_alpha    59.999998698682845
_cell_angle_beta     59.99999897228221
_cell_angle_gamma    59.9999986537808

_space_group_name_H-M_alt    "P 1"
_space_group_IT_number       1

loop_
  _space_group_symop_operation_xyz
  'x, y, z'

loop_
  _atom_site_type_symbol
  _atom_site_label
  _atom_site_symmetry_multiplicity
  _atom_site_fract_x
  _atom_site_fract_y
  _atom_site_fract_z
  _atom_site_occupancy
  Se  Se1       1.0  0.25000000099979997  0.24999999341844098  0.2499999878799244  1.0000
  Se  Se2       1.0  0.7499999988898204  0.7500000107311368  0.7500000015331016  1.0000
  Cd  Cd1       1.0  0.9999999807993355  0.9999999759401471  3.865574080529621e-08  1.0000
  I   I1        1.0  0.2694868111636527  0.26948678505398194  0.7305132113901578  1.0000
  I   I2        1.0  0.7305132320467393  0.7305132206995859  0.26948678961145067  1.0000
  I   I3        1.0  0.7305132175149511  0.2694867673218717  0.26948679381703255  1.0000
  I   I4        1.0  0.26948680819050125  0.7305132047479019  0.7305131934893695  1.0000
  I   I5        1.0  0.2694867890754173  0.7305132322202124  0.26948678458203185  1.0000
  I   I6        1.0  0.7305131641779771  0.2694868120291204  0.7305131976220105  1.0000
