data_image0
_chemical_formula_structural       Se2CdBr6
_chemical_formula_sum              "Se2 Cd1 Br6"
_cell_length_a       7.168475013459163
_cell_length_b       7.1684749587079635
_cell_length_c       7.168474973269282
_cell_angle_alpha    60.000000164610825
_cell_angle_beta     60.00000030491136
_cell_angle_gamma    60.00000035256196

_space_group_name_H-M_alt    "P 1"
_space_group_IT_number       1

loop_
  _space_group_symop_operation_xyz
  'x, y, z'

loop_
  _atom_site_type_symbol
  _atom_site_label
  _atom_site_symmetry_multiplicity
  _atom_site_fract_x
  _atom_site_fract_y
  _atom_site_fract_z
  _atom_site_occupancy
  Se  Se1       1.0  0.2500000422960919  0.2499999907498797  0.2499999581051954  1.0000
  Se  Se2       1.0  0.7500000020914704  0.7499999842092453  0.7499999809540722  1.0000
  Cd  Cd1       1.0  8.458752739294913e-10  1.1959606615260676e-08  0.9999999726723063  1.0000
  Br  Br1       1.0  0.2610179703556899  0.2610179930788969  0.7389820282845241  1.0000
  Br  Br2       1.0  0.7389820284408136  0.7389820075079565  0.2610180002712291  1.0000
  Br  Br3       1.0  0.7389820134159804  0.2610179790556004  0.2610180010931644  1.0000
  Br  Br4       1.0  0.2610179714527959  0.7389820198227378  0.7389820269107289  1.0000
  Br  Br5       1.0  0.2610179722655387  0.7389820204909967  0.26101799019656247  1.0000
  Br  Br6       1.0  0.7389819984800873  0.26101798692991757  0.7389820392026214  1.0000
