data_image0
_chemical_formula_structural       Se2CBr6
_chemical_formula_sum              "Se2 C1 Br6"
_cell_length_a       6.99897135619482
_cell_length_b       6.9989712047284405
_cell_length_c       6.998971667372581
_cell_angle_alpha    59.99999917673498
_cell_angle_beta     60.00000053209423
_cell_angle_gamma    60.000000019086876

_space_group_name_H-M_alt    "P 1"
_space_group_IT_number       1

loop_
  _space_group_symop_operation_xyz
  'x, y, z'

loop_
  _atom_site_type_symbol
  _atom_site_label
  _atom_site_symmetry_multiplicity
  _atom_site_fract_x
  _atom_site_fract_y
  _atom_site_fract_z
  _atom_site_occupancy
  Se  Se1       1.0  0.2500000353075  0.24999994987982707  0.2500000875362838  1.0000
  Se  Se2       1.0  0.7499999357541449  0.7500000928745676  0.7499999960416923  1.0000
  C   C1        1.0  3.534665335215834e-08  0.9999999632522528  0.9999999892702964  1.0000
  Br  Br1       1.0  0.24458862988412938  0.24458858549846826  0.7554114103366953  1.0000
  Br  Br2       1.0  0.7554113495438362  0.7554114222580716  0.24458861940432564  1.0000
  Br  Br3       1.0  0.7554113570250213  0.24458860503636623  0.24458864217523624  1.0000
  Br  Br4       1.0  0.24458859097355745  0.7554113782216741  0.7554113155150344  1.0000
  Br  Br5       1.0  0.24458867224658679  0.7554114004411029  0.2445886015387503  1.0000
  Br  Br6       1.0  0.7554113826897092  0.24458859856597334  0.7554113391003666  1.0000
