data_image0
_chemical_formula_structural       Se2CuBr6
_chemical_formula_sum              "Se2 Cu1 Br6"
_cell_length_a       6.997196286914642
_cell_length_b       6.9971963387638585
_cell_length_c       6.997196279597237
_cell_angle_alpha    59.999999174975855
_cell_angle_beta     60.00000008780837
_cell_angle_gamma    59.999999668902895

_space_group_name_H-M_alt    "P 1"
_space_group_IT_number       1

loop_
  _space_group_symop_operation_xyz
  'x, y, z'

loop_
  _atom_site_type_symbol
  _atom_site_label
  _atom_site_symmetry_multiplicity
  _atom_site_fract_x
  _atom_site_fract_y
  _atom_site_fract_z
  _atom_site_occupancy
  Se  Se1       1.0  0.25000000903975594  0.25000002688025297  0.24999998151119784  1.0000
  Se  Se2       1.0  0.7500000160195744  0.7499999703695532  0.7500000166521946  1.0000
  Cu  Cu1       1.0  6.017487120828105e-09  1.7503366103686696e-09  0.9999999946869442  1.0000
  Br  Br1       1.0  0.24814544779567732  0.2481454496284731  0.751854546515214  1.0000
  Br  Br2       1.0  0.7518545457090162  0.751854558123353  0.24814543787904178  1.0000
  Br  Br3       1.0  0.7518545451944657  0.24814544201270572  0.24814545472167437  1.0000
  Br  Br4       1.0  0.2481454393926881  0.7518545429847444  0.7518545626582654  1.0000
  Br  Br5       1.0  0.24814544532016838  0.7518545738989906  0.24814543287846277  1.0000
  Br  Br6       1.0  0.7518545447839553  0.2481454391038451  0.7518545691694428  1.0000
