data_image0
_chemical_formula_structural       Se2CO6
_chemical_formula_sum              "Se2 C1 O6"
_cell_length_a       5.187556583573976
_cell_length_b       5.187556271024254
_cell_length_c       5.187556420219159
_cell_angle_alpha    60.00000071170452
_cell_angle_beta     60.000000836868445
_cell_angle_gamma    59.99999897783231

_space_group_name_H-M_alt    "P 1"
_space_group_IT_number       1

loop_
  _space_group_symop_operation_xyz
  'x, y, z'

loop_
  _atom_site_type_symbol
  _atom_site_label
  _atom_site_symmetry_multiplicity
  _atom_site_fract_x
  _atom_site_fract_y
  _atom_site_fract_z
  _atom_site_occupancy
  Se  Se1       1.0  0.2500000810331107  0.2499991638251754  0.2500008815043258  1.0000
  Se  Se2       1.0  0.7500001179925804  0.7499991889830039  0.7500009812137416  1.0000
  C   C1        1.0  0.9999999852983165  0.9999998370959402  0.9999999519368884  1.0000
  O   O1        1.0  0.21588506367573385  0.2158854281448507  0.7841145270316262  1.0000
  O   O2        1.0  0.7841148400750072  0.7841152194856702  0.21588476291783476  1.0000
  O   O3        1.0  0.7841148306053317  0.2158855112888367  0.21588476734591724  1.0000
  O   O4        1.0  0.21588498626563152  0.784115256749034  0.78411465234419  1.0000
  O   O5        1.0  0.21588513813505883  0.7841151251890301  0.21588480694163772  1.0000
  O   O6        1.0  0.7841149451309474  0.21588529107051194  0.78411461688631  1.0000
