data_image0
_chemical_formula_structural       Se2CdF6
_chemical_formula_sum              "Se2 Cd1 F6"
_cell_length_a       5.9217406762340445
_cell_length_b       5.921740976949189
_cell_length_c       5.921741081691881
_cell_angle_alpha    60.000002549495846
_cell_angle_beta     60.00000241869467
_cell_angle_gamma    60.00000460501029

_space_group_name_H-M_alt    "P 1"
_space_group_IT_number       1

loop_
  _space_group_symop_operation_xyz
  'x, y, z'

loop_
  _atom_site_type_symbol
  _atom_site_label
  _atom_site_symmetry_multiplicity
  _atom_site_fract_x
  _atom_site_fract_y
  _atom_site_fract_z
  _atom_site_occupancy
  Se  Se1       1.0  0.24999991069861524  0.2499994018832845  0.2500007146519021  1.0000
  Se  Se2       1.0  0.7499998475907461  0.7499996141059447  0.7500003755194928  1.0000
  Cd  Cd1       1.0  0.9999999850528197  0.9999998634976459  8.416822613055826e-08  1.0000
  F   F1        1.0  0.26148776963788267  0.2614881627149716  0.7385118024391317  1.0000
  F   F2        1.0  0.7385119045265853  0.7385121293644331  0.261488139547188  1.0000
  F   F3        1.0  0.7385120705182685  0.26148841379747445  0.2614876512293383  1.0000
  F   F4        1.0  0.2614881934488361  0.7385120685579494  0.738511703140652  1.0000
  F   F5        1.0  0.26148833258134796  0.738512151051164  0.2614877321098248  1.0000
  F   F6        1.0  0.7385120398758558  0.26148816377864886  0.7385118003828648  1.0000
