data_image0
_chemical_formula_structural       Se2CrCl6
_chemical_formula_sum              "Se2 Cr1 Cl6"
_cell_length_a       6.667232129699884
_cell_length_b       6.667232491297637
_cell_length_c       6.667231926350846
_cell_angle_alpha    60.000000599903345
_cell_angle_beta     59.99999903650441
_cell_angle_gamma    59.99999982553578

_space_group_name_H-M_alt    "P 1"
_space_group_IT_number       1

loop_
  _space_group_symop_operation_xyz
  'x, y, z'

loop_
  _atom_site_type_symbol
  _atom_site_label
  _atom_site_symmetry_multiplicity
  _atom_site_fract_x
  _atom_site_fract_y
  _atom_site_fract_z
  _atom_site_occupancy
  Se  Se1       1.0  0.24999997726218817  0.25000009485552677  0.2499998235869351  1.0000
  Se  Se2       1.0  0.7500000914940578  0.7499999924897122  0.7499999254125573  1.0000
  Cr  Cr1       1.0  3.624690085447293e-08  3.6739227600381815e-08  0.999999933509478  1.0000
  Cl  Cl1       1.0  0.24034623451186435  0.24034633248556303  0.7596537394615828  1.0000
  Cl  Cl2       1.0  0.7596535375995673  0.7596537199574096  0.2403464152911074  1.0000
  Cl  Cl3       1.0  0.7596536981543981  0.2403463023522876  0.2403463147311557  1.0000
  Cl  Cl4       1.0  0.2403463032527713  0.7596536233403461  0.75965381874629  1.0000
  Cl  Cl5       1.0  0.24034640192988457  0.7596536232546498  0.2403463449831921  1.0000
  Cl  Cl6       1.0  0.7596537283735793  0.24034626386179445  0.7596536818394142  1.0000
