data_image0
_chemical_formula_structural       Se2CrF6
_chemical_formula_sum              "Se2 Cr1 F6"
_cell_length_a       5.190000018145774
_cell_length_b       5.190000073097771
_cell_length_c       5.190000068899626
_cell_angle_alpha    60.00000029313284
_cell_angle_beta     60.00000003657401
_cell_angle_gamma    60.00000045652828

_space_group_name_H-M_alt    "P 1"
_space_group_IT_number       1

loop_
  _space_group_symop_operation_xyz
  'x, y, z'

loop_
  _atom_site_type_symbol
  _atom_site_label
  _atom_site_symmetry_multiplicity
  _atom_site_fract_x
  _atom_site_fract_y
  _atom_site_fract_z
  _atom_site_occupancy
  Se  Se1       1.0  0.25000000869109423  0.2499999907961399  0.2500000082897111  1.0000
  Se  Se2       1.0  0.749999984564459  0.7500000101454863  0.7500000190378827  1.0000
  Cr  Cr1       1.0  0.9999999845609645  0.99999999292055  1.7039589429152102e-08  1.0000
  F   F1        1.0  0.25207764170945857  0.2520776237746592  0.7479223513223363  1.0000
  F   F2        1.0  0.747922394604974  0.7479223748071503  0.2520776055593878  1.0000
  F   F3        1.0  0.747922348728599  0.2520776524047894  0.2520776374639013  1.0000
  F   F4        1.0  0.25207764623512535  0.7479223367377533  0.7479223679341971  1.0000
  F   F5        1.0  0.25207764457532605  0.747922342994551  0.252077641967782  1.0000
  F   F6        1.0  0.7479223474887412  0.2520776815452418  0.7479223491083022  1.0000
