data_image0
_chemical_formula_structural       Se2CoO6
_chemical_formula_sum              "Se2 Co1 O6"
_cell_length_a       5.498601579355876
_cell_length_b       5.498601651984718
_cell_length_c       5.498601416904892
_cell_angle_alpha    59.99999845076203
_cell_angle_beta     59.99999887672436
_cell_angle_gamma    60.000000728085986

_space_group_name_H-M_alt    "P 1"
_space_group_IT_number       1

loop_
  _space_group_symop_operation_xyz
  'x, y, z'

loop_
  _atom_site_type_symbol
  _atom_site_label
  _atom_site_symmetry_multiplicity
  _atom_site_fract_x
  _atom_site_fract_y
  _atom_site_fract_z
  _atom_site_occupancy
  Se  Se1       1.0  0.24999875283165562  0.2500021313697361  0.24999987778741112  1.0000
  Se  Se2       1.0  0.7500014026530224  0.7500007454858697  0.7499990108270222  1.0000
  Co  Co1       1.0  2.547711610512824e-09  0.9999998663574892  7.82779125161493e-08  1.0000
  O   O1        1.0  0.23221240800136175  0.23221264737505803  0.7677873548688556  1.0000
  O   O2        1.0  0.7677880179760612  0.7677866523160332  0.23221264876283268  1.0000
  O   O3        1.0  0.767787368027357  0.2322121798390844  0.23221296511058198  1.0000
  O   O4        1.0  0.23221225849474594  0.7677868659312175  0.7677877961770023  1.0000
  O   O5        1.0  0.23221215174578286  0.7677868484893136  0.232213115403066  1.0000
  O   O6        1.0  0.7677876015837183  0.23221208145749286  0.7677871911874312  1.0000
