data_image0
_chemical_formula_structural       Se2CS6
_chemical_formula_sum              "Se2 C1 S6"
_cell_length_a       5.755562553969888
_cell_length_b       5.755561857026507
_cell_length_c       5.755562775899071
_cell_angle_alpha    59.99999616391232
_cell_angle_beta     59.99999478905901
_cell_angle_gamma    59.9999875503361

_space_group_name_H-M_alt    "P 1"
_space_group_IT_number       1

loop_
  _space_group_symop_operation_xyz
  'x, y, z'

loop_
  _atom_site_type_symbol
  _atom_site_label
  _atom_site_symmetry_multiplicity
  _atom_site_fract_x
  _atom_site_fract_y
  _atom_site_fract_z
  _atom_site_occupancy
  Se  Se1       1.0  0.25000113523251466  0.25000011962931157  0.2499980477584595  1.0000
  Se  Se2       1.0  0.7500017563331711  0.7500001609903683  0.7499968078308519  1.0000
  C   C1        1.0  2.0779244295951416e-07  1.4831690194960632e-06  0.9999918989299253  1.0000
  S   S1        1.0  0.256148017384984  0.25614844160850064  0.7438531007561398  1.0000
  S   S2        1.0  0.7438503737074915  0.7438508473950084  0.2561506410247226  1.0000
  S   S3        1.0  0.7438497565568643  0.2561494853934282  0.2561512226906698  1.0000
  S   S4        1.0  0.2561472973112414  0.743852069858826  0.7438533368158429  1.0000
  S   S5        1.0  0.25614939852668644  0.7438498266708393  0.2561513951067479  1.0000
  S   S6        1.0  0.7438520549634362  0.2561475216576124  0.743853597972596  1.0000
