data_image0
_chemical_formula_structural       Se2CuI6
_chemical_formula_sum              "Se2 Cu1 I6"
_cell_length_a       7.292698734174876
_cell_length_b       7.2926986848121516
_cell_length_c       7.292698758491055
_cell_angle_alpha    60.00000056405721
_cell_angle_beta     60.000000467074436
_cell_angle_gamma    59.99999981706871

_space_group_name_H-M_alt    "P 1"
_space_group_IT_number       1

loop_
  _space_group_symop_operation_xyz
  'x, y, z'

loop_
  _atom_site_type_symbol
  _atom_site_label
  _atom_site_symmetry_multiplicity
  _atom_site_fract_x
  _atom_site_fract_y
  _atom_site_fract_z
  _atom_site_occupancy
  Se  Se1       1.0  0.25000002171718366  0.25000003125716397  0.24999997640431398  1.0000
  Se  Se2       1.0  0.7499999858571139  0.7499999896479226  0.7500000003534268  1.0000
  Cu  Cu1       1.0  0.9999999870614159  0.9999999865647006  0.9999999843910174  1.0000
  I   I1        1.0  0.25407377726338465  0.25407376240885204  0.745926238689194  1.0000
  I   I2        1.0  0.7459262309832436  0.745926223228574  0.254073769078556  1.0000
  I   I3        1.0  0.7459262172519335  0.25407379162707167  0.2540737847612726  1.0000
  I   I4        1.0  0.2540737540805798  0.745926247751552  0.7459262379039225  1.0000
  I   I5        1.0  0.25407379288329884  0.7459262035102379  0.25407377711323975  1.0000
  I   I6        1.0  0.7459262320449271  0.2540737653330642  0.745926234824477  1.0000
