data_image0
_chemical_formula_structural       Se2CI6
_chemical_formula_sum              "Se2 C1 I6"
_cell_length_a       7.29786677153039
_cell_length_b       7.297866933855291
_cell_length_c       7.297866715677114
_cell_angle_alpha    60.00000308519937
_cell_angle_beta     60.000001181297634
_cell_angle_gamma    60.00000264829662

_space_group_name_H-M_alt    "P 1"
_space_group_IT_number       1

loop_
  _space_group_symop_operation_xyz
  'x, y, z'

loop_
  _atom_site_type_symbol
  _atom_site_label
  _atom_site_symmetry_multiplicity
  _atom_site_fract_x
  _atom_site_fract_y
  _atom_site_fract_z
  _atom_site_occupancy
  Se  Se1       1.0  0.25000002777278235  0.25000000713664  0.25000003651484815  1.0000
  Se  Se2       1.0  0.7500000193567369  0.7500000566526004  0.7499999923587185  1.0000
  C   C1        1.0  1.5136611992321828e-07  1.1076272612633124e-07  1.7724485531828195e-07  1.0000
  I   I1        1.0  0.25705924854142254  0.2570592325017908  0.7429407330599342  1.0000
  I   I2        1.0  0.7429406432430782  0.7429406802473746  0.2570593188311482  1.0000
  I   I3        1.0  0.7429407304907284  0.25705923391657226  0.2570592411283196  1.0000
  I   I4        1.0  0.25705929691978585  0.742940646946354  0.7429406218665315  1.0000
  I   I5        1.0  0.25705925537899993  0.7429407579362202  0.2570592593311156  1.0000
  I   I6        1.0  0.7429406234897237  0.2570592790014457  0.7429406122296331  1.0000
