data_image0
_chemical_formula_structural       Se2CoS6
_chemical_formula_sum              "Se2 Co1 S6"
_cell_length_a       6.159151105844355
_cell_length_b       6.1591510775214875
_cell_length_c       6.159151148037277
_cell_angle_alpha    59.99999792654532
_cell_angle_beta     59.99999778414804
_cell_angle_gamma    59.999999688564166

_space_group_name_H-M_alt    "P 1"
_space_group_IT_number       1

loop_
  _space_group_symop_operation_xyz
  'x, y, z'

loop_
  _atom_site_type_symbol
  _atom_site_label
  _atom_site_symmetry_multiplicity
  _atom_site_fract_x
  _atom_site_fract_y
  _atom_site_fract_z
  _atom_site_occupancy
  Se  Se1       1.0  0.2499999003558888  0.2500001231730549  0.2499999936114711  1.0000
  Se  Se2       1.0  0.7500000260922967  0.749999940003973  0.7500002652545457  1.0000
  Co  Co1       1.0  0.9999999447218115  4.772390843943264e-08  1.0768756305466128e-07  1.0000
  S   S1        1.0  0.24846770566838433  0.2484677522550634  0.7515323212652237  1.0000
  S   S2        1.0  0.7515322891813977  0.751532263198058  0.24846766910949078  1.0000
  S   S3        1.0  0.7515323298424744  0.24846772806840337  0.24846769005492284  1.0000
  S   S4        1.0  0.24846778107427653  0.7515321979023896  0.7515321295382364  1.0000
  S   S5        1.0  0.2484678054818669  0.7515322674176059  0.24846767069153863  1.0000
  S   S6        1.0  0.7515322195170209  0.24846767446115614  0.7515321692941654  1.0000
