data_image0
_chemical_formula_structural       Se2CoBr6
_chemical_formula_sum              "Se2 Co1 Br6"
_cell_length_a       7.065760472099522
_cell_length_b       7.0657603826792394
_cell_length_c       7.065760372374143
_cell_angle_alpha    60.00000054506518
_cell_angle_beta     60.00000002320451
_cell_angle_gamma    59.999999404669815

_space_group_name_H-M_alt    "P 1"
_space_group_IT_number       1

loop_
  _space_group_symop_operation_xyz
  'x, y, z'

loop_
  _atom_site_type_symbol
  _atom_site_label
  _atom_site_symmetry_multiplicity
  _atom_site_fract_x
  _atom_site_fract_y
  _atom_site_fract_z
  _atom_site_occupancy
  Se  Se1       1.0  0.25000000869486955  0.24999997898237697  0.24999998132644932  1.0000
  Se  Se2       1.0  0.7499999936295743  0.7500000392148897  0.7499999798367787  1.0000
  Co  Co1       1.0  4.288624212347115e-08  0.9999999791997779  1.1601403335472944e-08  1.0000
  Br  Br1       1.0  0.2452079013740328  0.2452079114033588  0.7547920962043281  1.0000
  Br  Br2       1.0  0.754792081438906  0.7547921015938527  0.24520789288271438  1.0000
  Br  Br3       1.0  0.7547920743701308  0.24520790224787942  0.2452079413583597  1.0000
  Br  Br4       1.0  0.2452078972015334  0.7547921003492216  0.75479210808403  1.0000
  Br  Br5       1.0  0.24520792246175682  0.7547920706245859  0.24520790277960616  1.0000
  Br  Br6       1.0  0.7547920826694834  0.24520791463899608  0.7547920861845484  1.0000
