data_image0
_chemical_formula_structural       Se2CoCl6
_chemical_formula_sum              "Se2 Co1 Cl6"
_cell_length_a       6.587345804232339
_cell_length_b       6.587345518930795
_cell_length_c       6.587346043812734
_cell_angle_alpha    59.999997030475
_cell_angle_beta     59.999997179280214
_cell_angle_gamma    59.99999841554791

_space_group_name_H-M_alt    "P 1"
_space_group_IT_number       1

loop_
  _space_group_symop_operation_xyz
  'x, y, z'

loop_
  _atom_site_type_symbol
  _atom_site_label
  _atom_site_symmetry_multiplicity
  _atom_site_fract_x
  _atom_site_fract_y
  _atom_site_fract_z
  _atom_site_occupancy
  Se  Se1       1.0  0.24999998427154838  0.2499999296605936  0.2500000603105939  1.0000
  Se  Se2       1.0  0.7500000794096692  0.7500000139496902  0.7500000051503128  1.0000
  Co  Co1       1.0  3.971536181179246e-08  0.999999970252178  2.3859408517418275e-08  1.0000
  Cl  Cl1       1.0  0.23984444565686355  0.23984445356547107  0.7601555660078029  1.0000
  Cl  Cl2       1.0  0.760155603202045  0.7601556239100139  0.23984437313692758  1.0000
  Cl  Cl3       1.0  0.7601556440357039  0.23984435897079867  0.23984435954661842  1.0000
  Cl  Cl4       1.0  0.23984436325173505  0.760155569765573  0.7601556352837914  1.0000
  Cl  Cl5       1.0  0.23984426607533924  0.7601556763894018  0.23984441915509672  1.0000
  Cl  Cl6       1.0  0.7601555747010323  0.23984440480455815  0.7601555508227513  1.0000
