data_image0
_chemical_formula_structural       Se2CrBr6
_chemical_formula_sum              "Se2 Cr1 Br6"
_cell_length_a       7.118795315518638
_cell_length_b       7.118795329615186
_cell_length_c       7.11879560277127
_cell_angle_alpha    59.99999969828754
_cell_angle_beta     59.99999855599979
_cell_angle_gamma    59.99999781596055

_space_group_name_H-M_alt    "P 1"
_space_group_IT_number       1

loop_
  _space_group_symop_operation_xyz
  'x, y, z'

loop_
  _atom_site_type_symbol
  _atom_site_label
  _atom_site_symmetry_multiplicity
  _atom_site_fract_x
  _atom_site_fract_y
  _atom_site_fract_z
  _atom_site_occupancy
  Se  Se1       1.0  0.24999994657452895  0.2500001467982893  0.2499999758117728  1.0000
  Se  Se2       1.0  0.7499998251816281  0.7500000120057057  0.7499999550478595  1.0000
  Cr  Cr1       1.0  5.012036874421638e-08  0.9999999518277243  3.273952115001103e-08  1.0000
  Br  Br1       1.0  0.24053894471730805  0.2405388959235562  0.7594610864696743  1.0000
  Br  Br2       1.0  0.7594610873560805  0.759461051266512  0.24053893522632822  1.0000
  Br  Br3       1.0  0.7594611058649334  0.2405389063192652  0.24053897440735844  1.0000
  Br  Br4       1.0  0.24053899109025087  0.759461040870802  0.7594610415376545  1.0000
  Br  Br5       1.0  0.24053896671013322  0.7594610573303995  0.24053894039323562  1.0000
  Br  Br6       1.0  0.7594610812716412  0.24053893459106673  0.7594610580065352  1.0000
