data_image0
_chemical_formula_structural       Se2CoI6
_chemical_formula_sum              "Se2 Co1 I6"
_cell_length_a       7.33564159579369
_cell_length_b       7.335641642279891
_cell_length_c       7.335641640915723
_cell_angle_alpha    60.000000127161904
_cell_angle_beta     59.99999973576895
_cell_angle_gamma    60.00000078276423

_space_group_name_H-M_alt    "P 1"
_space_group_IT_number       1

loop_
  _space_group_symop_operation_xyz
  'x, y, z'

loop_
  _atom_site_type_symbol
  _atom_site_label
  _atom_site_symmetry_multiplicity
  _atom_site_fract_x
  _atom_site_fract_y
  _atom_site_fract_z
  _atom_site_occupancy
  Se  Se1       1.0  0.24999998942338034  0.24999997469673965  0.2500000602507939  1.0000
  Se  Se2       1.0  0.7500000059038178  0.7500000142475987  0.749999987352163  1.0000
  Co  Co1       1.0  1.6122901303485992e-08  0.9999999799650269  1.0135279471459095e-08  1.0000
  I   I1        1.0  0.24851023380086273  0.2485102366524816  0.7514897538560039  1.0000
  I   I2        1.0  0.7514897412212903  0.7514897990401271  0.24851022736025688  1.0000
  I   I3        1.0  0.7514897709428087  0.24851023833434757  0.24851022771930734  1.0000
  I   I4        1.0  0.24851021093225614  0.7514897956886801  0.7514897481788736  1.0000
  I   I5        1.0  0.2485102340234457  0.7514897698395012  0.24851022021169236  1.0000
  I   I6        1.0  0.7514897952982388  0.24851019740028274  0.751489757175557  1.0000
