data_image0
_chemical_formula_structural       Se2CF6
_chemical_formula_sum              "Se2 C1 F6"
_cell_length_a       5.424429022374673
_cell_length_b       5.424428367698186
_cell_length_c       5.424428608810368
_cell_angle_alpha    60.00000107435301
_cell_angle_beta     59.99999987550045
_cell_angle_gamma    59.999999195238274

_space_group_name_H-M_alt    "P 1"
_space_group_IT_number       1

loop_
  _space_group_symop_operation_xyz
  'x, y, z'

loop_
  _atom_site_type_symbol
  _atom_site_label
  _atom_site_symmetry_multiplicity
  _atom_site_fract_x
  _atom_site_fract_y
  _atom_site_fract_z
  _atom_site_occupancy
  Se  Se1       1.0  0.25000022452632664  0.2500000092109481  0.24999954476418107  1.0000
  Se  Se2       1.0  0.7500002393454321  0.7499999892497212  0.7499995582309154  1.0000
  C   C1        1.0  9.602780012354563e-08  2.4836147198193747e-08  0.999999757060323  1.0000
  F   F1        1.0  0.20782080767557506  0.20782096032768743  0.7921792469471434  1.0000
  F   F2        1.0  0.7921789864512174  0.7921789591088866  0.2078211245358841  1.0000
  F   F3        1.0  0.7921788892579885  0.20782102118360776  0.20782117629830632  1.0000
  F   F4        1.0  0.20782082913553124  0.7921790743638766  0.7921792445455629  1.0000
  F   F5        1.0  0.20782090243092213  0.7921789523179963  0.20782116807833118  1.0000
  F   F6        1.0  0.7921790113976648  0.20782097840774064  0.7921791710924341  1.0000
