data_image0
_chemical_formula_structural       Se2FeF6
_chemical_formula_sum              "Se2 Fe1 F6"
_cell_length_a       5.184221541239952
_cell_length_b       5.184221667154597
_cell_length_c       5.184221542821357
_cell_angle_alpha    60.000000111395096
_cell_angle_beta     60.00000075449418
_cell_angle_gamma    60.00000021812011

_space_group_name_H-M_alt    "P 1"
_space_group_IT_number       1

loop_
  _space_group_symop_operation_xyz
  'x, y, z'

loop_
  _atom_site_type_symbol
  _atom_site_label
  _atom_site_symmetry_multiplicity
  _atom_site_fract_x
  _atom_site_fract_y
  _atom_site_fract_z
  _atom_site_occupancy
  Se  Se1       1.0  0.24999996872736158  0.24999999398984254  0.25000005131721226  1.0000
  Se  Se2       1.0  0.7499999968273228  0.7500000174062326  0.7500000060377495  1.0000
  Fe  Fe1       1.0  4.566602229233186e-09  3.307425728474719e-08  0.9999999869663598  1.0000
  F   F1        1.0  0.25699594544613286  0.25699592880461414  0.7430040605619614  1.0000
  F   F2        1.0  0.7430040337427901  0.74300406841678  0.25699593340853455  1.0000
  F   F3        1.0  0.7430040735802248  0.25699589629982644  0.25699591366796687  1.0000
  F   F4        1.0  0.25699597481441805  0.7430040536726287  0.7430040423191205  1.0000
  F   F5        1.0  0.25699591744522765  0.743004094270739  0.2569959009393632  1.0000
  F   F6        1.0  0.7430040943662594  0.25699590531310157  0.7430041102593661  1.0000
