data_image0
_chemical_formula_structural       Se2FeI6
_chemical_formula_sum              "Se2 Fe1 I6"
_cell_length_a       7.541041733652929
_cell_length_b       7.541041640797609
_cell_length_c       7.541042072849015
_cell_angle_alpha    59.99999883408304
_cell_angle_beta     60.000000160443626
_cell_angle_gamma    60.00000037623481

_space_group_name_H-M_alt    "P 1"
_space_group_IT_number       1

loop_
  _space_group_symop_operation_xyz
  'x, y, z'

loop_
  _atom_site_type_symbol
  _atom_site_label
  _atom_site_symmetry_multiplicity
  _atom_site_fract_x
  _atom_site_fract_y
  _atom_site_fract_z
  _atom_site_occupancy
  Se  Se1       1.0  0.24999999139169835  0.249999976196088  0.2500000026075385  1.0000
  Se  Se2       1.0  0.7500000112322032  0.7500000195381845  0.749999976971019  1.0000
  Fe  Fe1       1.0  0.9999999718966448  1.6241054285329807e-09  4.9043694763528814e-08  1.0000
  I   I1        1.0  0.22476142480947878  0.22476151046589904  0.7752385519362742  1.0000
  I   I2        1.0  0.7752386045404535  0.7752385291192284  0.22476144804906129  1.0000
  I   I3        1.0  0.7752385615016889  0.22476145527838043  0.22476144889562474  1.0000
  I   I4        1.0  0.22476149205593127  0.7752384657470298  0.7752385226793547  1.0000
  I   I5        1.0  0.22476141190565954  0.7752385409575193  0.224761483661041  1.0000
  I   I6        1.0  0.7752385138625775  0.224761497003501  0.7752385066015909  1.0000
