data_image0
_chemical_formula_structural       Se2GeI6
_chemical_formula_sum              "Se2 Ge1 I6"
_cell_length_a       7.599236400571818
_cell_length_b       7.599236484100615
_cell_length_c       7.59923635263227
_cell_angle_alpha    60.00000052796252
_cell_angle_beta     60.000001256156835
_cell_angle_gamma    59.999999460536564

_space_group_name_H-M_alt    "P 1"
_space_group_IT_number       1

loop_
  _space_group_symop_operation_xyz
  'x, y, z'

loop_
  _atom_site_type_symbol
  _atom_site_label
  _atom_site_symmetry_multiplicity
  _atom_site_fract_x
  _atom_site_fract_y
  _atom_site_fract_z
  _atom_site_occupancy
  Se  Se1       1.0  0.24999993775281082  0.24999991159414764  0.2500000500722593  1.0000
  Se  Se2       1.0  0.750000042941708  0.7500000941844751  0.7499998925199334  1.0000
  Ge  Ge1       1.0  0.9999999883812598  0.9999999983883315  6.714760232459667e-08  1.0000
  I   I1        1.0  0.2657067355231431  0.2657067628267874  0.7342932774955653  1.0000
  I   I2        1.0  0.7342932757298172  0.7342932606801862  0.26570673043590703  1.0000
  I   I3        1.0  0.7342932643615879  0.26570670434106114  0.2657067608378132  1.0000
  I   I4        1.0  0.26570675711441977  0.7342932611458528  0.7342932328304358  1.0000
  I   I5        1.0  0.2657067179506671  0.734293268071038  0.2657067298889517  1.0000
  I   I6        1.0  0.7342932774015841  0.2657067393192527  0.7342932611531737  1.0000
