data_image0
_chemical_formula_structural       Se2GeBr6
_chemical_formula_sum              "Se2 Ge1 Br6"
_cell_length_a       7.22871875337612
_cell_length_b       7.228718888345048
_cell_length_c       7.228718606106379
_cell_angle_alpha    59.9999996819479
_cell_angle_beta     60.000001107244714
_cell_angle_gamma    59.99999971853743

_space_group_name_H-M_alt    "P 1"
_space_group_IT_number       1

loop_
  _space_group_symop_operation_xyz
  'x, y, z'

loop_
  _atom_site_type_symbol
  _atom_site_label
  _atom_site_symmetry_multiplicity
  _atom_site_fract_x
  _atom_site_fract_y
  _atom_site_fract_z
  _atom_site_occupancy
  Se  Se1       1.0  0.24999997041029492  0.2500000176510788  0.25000001300806224  1.0000
  Se  Se2       1.0  0.7500001105185531  0.7499999055511783  0.7499999314624924  1.0000
  Ge  Ge1       1.0  0.9999999616961488  0.9999999423945976  7.97721614372837e-08  1.0000
  Br  Br1       1.0  0.237379160076843  0.2373791487562617  0.7626208592288812  1.0000
  Br  Br2       1.0  0.7626209306105975  0.7626209608164125  0.23737906464594488  1.0000
  Br  Br3       1.0  0.7626208148247816  0.2373791130376271  0.23737920485763703  1.0000
  Br  Br4       1.0  0.2373791257755108  0.7626208813242435  0.7626208710333605  1.0000
  Br  Br5       1.0  0.23737909595976814  0.7626208680485098  0.2373791371741123  1.0000
  Br  Br6       1.0  0.7626208326836899  0.2373791669759996  0.7626208289113805  1.0000
