data_image0
_chemical_formula_structural       Se2GeS6
_chemical_formula_sum              "Se2 Ge1 S6"
_cell_length_a       6.342535860149911
_cell_length_b       6.342535557083055
_cell_length_c       6.342535312528268
_cell_angle_alpha    59.99999492025706
_cell_angle_beta     59.999998383188434
_cell_angle_gamma    60.00000107597569

_space_group_name_H-M_alt    "P 1"
_space_group_IT_number       1

loop_
  _space_group_symop_operation_xyz
  'x, y, z'

loop_
  _atom_site_type_symbol
  _atom_site_label
  _atom_site_symmetry_multiplicity
  _atom_site_fract_x
  _atom_site_fract_y
  _atom_site_fract_z
  _atom_site_occupancy
  Se  Se1       1.0  0.25000090700139427  0.25000010686635826  0.2499996923518831  1.0000
  Se  Se2       1.0  0.7499998766677433  0.7500006392142127  0.7500012796036994  1.0000
  Ge  Ge1       1.0  0.9999999833025477  0.9999999845519869  0.9999999388165619  1.0000
  S   S1        1.0  0.2615466100005853  0.2615461070308178  0.7384533232708752  1.0000
  S   S2        1.0  0.7384534527975468  0.7384535847227325  0.26154591903388175  1.0000
  S   S3        1.0  0.7384534649889454  0.2615466880693504  0.2615462159220844  1.0000
  S   S4        1.0  0.26154609116779265  0.7384535405027233  0.7384534369913743  1.0000
  S   S5        1.0  0.26154662096019293  0.738453342804243  0.2615462643684731  1.0000
  S   S6        1.0  0.7384529967617668  0.2615459801278597  0.7384539256783316  1.0000
