data_image0
_chemical_formula_structural       Se2GeCl6
_chemical_formula_sum              "Se2 Ge1 Cl6"
_cell_length_a       6.8187614847406985
_cell_length_b       6.818761554216539
_cell_length_c       6.818760934472479
_cell_angle_alpha    59.99999871624079
_cell_angle_beta     59.999999893636264
_cell_angle_gamma    60.000000691338784

_space_group_name_H-M_alt    "P 1"
_space_group_IT_number       1

loop_
  _space_group_symop_operation_xyz
  'x, y, z'

loop_
  _atom_site_type_symbol
  _atom_site_label
  _atom_site_symmetry_multiplicity
  _atom_site_fract_x
  _atom_site_fract_y
  _atom_site_fract_z
  _atom_site_occupancy
  Se  Se1       1.0  0.24999994622993335  0.25000042941195333  0.24999980216678183  1.0000
  Se  Se2       1.0  0.7500003467712457  0.7499999824422584  0.7499996660349554  1.0000
  Ge  Ge1       1.0  0.999999981372413  0.9999999999999946  1.4423567005833425e-07  1.0000
  Cl  Cl1       1.0  0.2335388436335791  0.2335388681419085  0.7664611485832593  1.0000
  Cl  Cl2       1.0  0.7664611010962628  0.7664610695313899  0.23353896842444677  1.0000
  Cl  Cl3       1.0  0.7664610476440747  0.23353879384680876  0.23353896950053943  1.0000
  Cl  Cl4       1.0  0.23353893393306768  0.7664609875623317  0.7664611573531678  1.0000
  Cl  Cl5       1.0  0.23353882119673744  0.766461070756461  0.2335388971066982  1.0000
  Cl  Cl6       1.0  0.7664609880099098  0.23353878070212994  0.7664612413108957  1.0000
