data_image0
_chemical_formula_structural       Se2HfO6
_chemical_formula_sum              "Se2 Hf1 O6"
_cell_length_a       5.441524083951761
_cell_length_b       5.4415246764995135
_cell_length_c       5.441523969060155
_cell_angle_alpha    60.00000079360721
_cell_angle_beta     60.00000311533533
_cell_angle_gamma    60.00000165665505

_space_group_name_H-M_alt    "P 1"
_space_group_IT_number       1

loop_
  _space_group_symop_operation_xyz
  'x, y, z'

loop_
  _atom_site_type_symbol
  _atom_site_label
  _atom_site_symmetry_multiplicity
  _atom_site_fract_x
  _atom_site_fract_y
  _atom_site_fract_z
  _atom_site_occupancy
  Se  Se1       1.0  0.2500004192214375  0.25000007166099575  0.24999939698660326  1.0000
  Se  Se2       1.0  0.7499995454542968  0.7500002014785404  0.7499998127955652  1.0000
  Hf  Hf1       1.0  9.731113342005885e-09  9.002956261005188e-09  0.9999999336636305  1.0000
  O   O1        1.0  0.2665884766914205  0.2665884098998085  0.7334117990976302  1.0000
  O   O2        1.0  0.7334115282439929  0.7334115323811284  0.266588664129453  1.0000
  O   O3        1.0  0.7334114052426735  0.2665882851563178  0.26658858998262003  1.0000
  O   O4        1.0  0.26658871010385254  0.7334115423369714  0.7334116346913537  1.0000
  O   O5        1.0  0.2665885615333741  0.7334116101743323  0.26658834864357184  1.0000
  O   O6        1.0  0.7334113199388911  0.2665883523632677  0.7334118390725068  1.0000
