data_image0
_chemical_formula_structural       Se2HfS6
_chemical_formula_sum              "Se2 Hf1 S6"
_cell_length_a       6.459969686945968
_cell_length_b       6.459969349861242
_cell_length_c       6.4599695258601075
_cell_angle_alpha    59.999998660646305
_cell_angle_beta     59.999999714666686
_cell_angle_gamma    59.99999918555373

_space_group_name_H-M_alt    "P 1"
_space_group_IT_number       1

loop_
  _space_group_symop_operation_xyz
  'x, y, z'

loop_
  _atom_site_type_symbol
  _atom_site_label
  _atom_site_symmetry_multiplicity
  _atom_site_fract_x
  _atom_site_fract_y
  _atom_site_fract_z
  _atom_site_occupancy
  Se  Se1       1.0  0.25000002039655633  0.24999982405699878  0.2500001115461704  1.0000
  Se  Se2       1.0  0.7499999206917025  0.7500000598996615  0.750000316906485  1.0000
  Hf  Hf1       1.0  9.0085729969807e-09  5.8772866702813944e-08  0.9999999939731884  1.0000
  S   S1        1.0  0.27024024765006516  0.2702401886058406  0.7297597437468178  1.0000
  S   S2        1.0  0.7297598131429123  0.7297597920416662  0.27024011056158337  1.0000
  S   S3        1.0  0.7297597279928723  0.2702402818797751  0.27024007974937253  1.0000
  S   S4        1.0  0.2702402953158419  0.7297597897708797  0.7297596827837999  1.0000
  S   S5        1.0  0.2702402226995994  0.729759862169483  0.2702401529448738  1.0000
  S   S6        1.0  0.7297597549124821  0.27024013743701214  0.7297597783663345  1.0000
