data_image0
_chemical_formula_structural       Se2InCl6
_chemical_formula_sum              "Se2 In1 Cl6"
_cell_length_a       6.738673797025473
_cell_length_b       6.738673124372825
_cell_length_c       6.73867332910595
_cell_angle_alpha    60.00000052954062
_cell_angle_beta     60.00000442237001
_cell_angle_gamma    60.00000355737574

_space_group_name_H-M_alt    "P 1"
_space_group_IT_number       1

loop_
  _space_group_symop_operation_xyz
  'x, y, z'

loop_
  _atom_site_type_symbol
  _atom_site_label
  _atom_site_symmetry_multiplicity
  _atom_site_fract_x
  _atom_site_fract_y
  _atom_site_fract_z
  _atom_site_occupancy
  Se  Se1       1.0  0.24999982287521683  0.250000249822735  0.2500001182875438  1.0000
  Se  Se2       1.0  0.7500000714782806  0.7499998970669761  0.7500001442593438  1.0000
  In  In1       1.0  1.7741254608512517e-08  0.9999999981825141  0.9999999757144281  1.0000
  Cl  Cl1       1.0  0.26096417448474113  0.26096418710304015  0.7390357835218824  1.0000
  Cl  Cl2       1.0  0.7390357592476218  0.7390358416500349  0.2609641385071544  1.0000
  Cl  Cl3       1.0  0.7390357950535698  0.2609641713123132  0.2609641873518846  1.0000
  Cl  Cl4       1.0  0.26096423903542854  0.7390357465740798  0.7390358260025299  1.0000
  Cl  Cl5       1.0  0.26096430461287656  0.7390356784849555  0.2609641397519759  1.0000
  Cl  Cl6       1.0  0.7390358179745058  0.2609642412189268  0.7390356681755681  1.0000
