data_image0
_chemical_formula_structural       Se2IrO6
_chemical_formula_sum              "Se2 Ir1 O6"
_cell_length_a       5.496306834235538
_cell_length_b       5.496310425612777
_cell_length_c       5.496301909173575
_cell_angle_alpha    60.00001364301848
_cell_angle_beta     59.99999504171333
_cell_angle_gamma    60.00004512082868

_space_group_name_H-M_alt    "P 1"
_space_group_IT_number       1

loop_
  _space_group_symop_operation_xyz
  'x, y, z'

loop_
  _atom_site_type_symbol
  _atom_site_label
  _atom_site_symmetry_multiplicity
  _atom_site_fract_x
  _atom_site_fract_y
  _atom_site_fract_z
  _atom_site_occupancy
  Se  Se1       1.0  0.2499898806282882  0.2499797128490861  0.25004238072646184  1.0000
  Se  Se2       1.0  0.7500052919239366  0.750031212055857  0.7499904259296298  1.0000
  Ir  Ir1       1.0  3.3241802567058306e-07  0.9999991666156283  0.9999975304726236  1.0000
  O   O1        1.0  0.24315571011606024  0.24314722295178187  0.7568388726911512  1.0000
  O   O2        1.0  0.7568468658404742  0.7568492313711731  0.24314796881944392  1.0000
  O   O3        1.0  0.7568492219850295  0.24314412356735868  0.24315580316997346  1.0000
  O   O4        1.0  0.24314799244411903  0.7568568185545042  0.756836214755403  1.0000
  O   O5        1.0  0.2431489437285617  0.7568496615932445  0.2431521954802958  1.0000
  O   O6        1.0  0.7568556808478477  0.2431428842861886  0.7568386270851347  1.0000
