data_image0
_chemical_formula_structural       Se2InI6
_chemical_formula_sum              "Se2 In1 I6"
_cell_length_a       7.692074570256971
_cell_length_b       7.692074573717331
_cell_length_c       7.692074567249324
_cell_angle_alpha    59.999998853122094
_cell_angle_beta     59.999999012805105
_cell_angle_gamma    59.99999918056126

_space_group_name_H-M_alt    "P 1"
_space_group_IT_number       1

loop_
  _space_group_symop_operation_xyz
  'x, y, z'

loop_
  _atom_site_type_symbol
  _atom_site_label
  _atom_site_symmetry_multiplicity
  _atom_site_fract_x
  _atom_site_fract_y
  _atom_site_fract_z
  _atom_site_occupancy
  Se  Se1       1.0  0.2500000138461734  0.24999999680725563  0.2499999549919466  1.0000
  Se  Se2       1.0  0.7499999863599806  0.7499999713151655  0.7500001231251087  1.0000
  In  In1       1.0  3.974292120774081e-08  0.9999999888544838  0.9999999714008638  1.0000
  I   I1        1.0  0.264906753523509  0.26490674103808054  0.7350932578230147  1.0000
  I   I2        1.0  0.7350932117007508  0.7350932509675906  0.2649067504410779  1.0000
  I   I3        1.0  0.7350932295501962  0.26490679853394183  0.2649067413113707  1.0000
  I   I4        1.0  0.2649067746885015  0.7350932205394113  0.7350932430119371  1.0000
  I   I5        1.0  0.2649067692582997  0.7350932600525227  0.2649067348775684  1.0000
  I   I6        1.0  0.7350932261399583  0.2649067765352134  0.7350932152078614  1.0000
