data_image0
_chemical_formula_structural       Se2InBr6
_chemical_formula_sum              "Se2 In1 Br6"
_cell_length_a       7.244102281558861
_cell_length_b       7.244102150443714
_cell_length_c       7.2441021282615194
_cell_angle_alpha    60.00000119841156
_cell_angle_beta     60.00000088496366
_cell_angle_gamma    60.00000219037174

_space_group_name_H-M_alt    "P 1"
_space_group_IT_number       1

loop_
  _space_group_symop_operation_xyz
  'x, y, z'

loop_
  _atom_site_type_symbol
  _atom_site_label
  _atom_site_symmetry_multiplicity
  _atom_site_fract_x
  _atom_site_fract_y
  _atom_site_fract_z
  _atom_site_occupancy
  Se  Se1       1.0  0.2500000004319706  0.2499999526046295  0.24999993560559974  1.0000
  Se  Se2       1.0  0.7499998806500986  0.7499999710893543  0.7499999595887731  1.0000
  In  In1       1.0  3.091282624641177e-08  5.072035948113029e-08  2.40637739557214e-08  1.0000
  Br  Br1       1.0  0.2584933770115326  0.2584933362087271  0.7415066557974728  1.0000
  Br  Br2       1.0  0.7415067056200788  0.741506661875122  0.2584933416225959  1.0000
  Br  Br3       1.0  0.741506652507614  0.25849335813404145  0.2584933808502219  1.0000
  Br  Br4       1.0  0.2584933713398596  0.741506629805735  0.7415066593165518  1.0000
  Br  Br5       1.0  0.2584933524282726  0.7415066647122415  0.25849338231101054  1.0000
  Br  Br6       1.0  0.7415066365116904  0.25849337056653526  0.7415066516400188  1.0000
