data_image0
_chemical_formula_structural       Se2IrS6
_chemical_formula_sum              "Se2 Ir1 S6"
_cell_length_a       6.24710434670938
_cell_length_b       6.247104423607165
_cell_length_c       6.247104435051921
_cell_angle_alpha    60.00000145056086
_cell_angle_beta     60.00000137953082
_cell_angle_gamma    60.000000592298655

_space_group_name_H-M_alt    "P 1"
_space_group_IT_number       1

loop_
  _space_group_symop_operation_xyz
  'x, y, z'

loop_
  _atom_site_type_symbol
  _atom_site_label
  _atom_site_symmetry_multiplicity
  _atom_site_fract_x
  _atom_site_fract_y
  _atom_site_fract_z
  _atom_site_occupancy
  Se  Se1       1.0  0.2500000222360106  0.24999983317496055  0.2500001206552625  1.0000
  Se  Se2       1.0  0.7499999394612946  0.7499999367163922  0.7500000485199849  1.0000
  Ir  Ir1       1.0  6.422877554657963e-09  0.9999999862764997  1.3254760955280907e-08  1.0000
  S   S1        1.0  0.26086672174112724  0.260866729202118  0.7391333187587487  1.0000
  S   S2        1.0  0.7391332578183234  0.7391333641717435  0.26086671816197415  1.0000
  S   S3        1.0  0.739133275323383  0.2608667491899193  0.26086664244607205  1.0000
  S   S4        1.0  0.2608667254459606  0.7391333304604402  0.739133249866194  1.0000
  S   S5        1.0  0.260866694449517  0.7391333412898682  0.2608666804387462  1.0000
  S   S6        1.0  0.739133353836257  0.2608667344394911  0.7391332076839628  1.0000
