data_image0
_chemical_formula_structural       Se2MnCl6
_chemical_formula_sum              "Se2 Mn1 Cl6"
_cell_length_a       6.6553842695732275
_cell_length_b       6.65538398070031
_cell_length_c       6.655384208080972
_cell_angle_alpha    59.99999953915564
_cell_angle_beta     60.000000903251035
_cell_angle_gamma    59.99999612987474

_space_group_name_H-M_alt    "P 1"
_space_group_IT_number       1

loop_
  _space_group_symop_operation_xyz
  'x, y, z'

loop_
  _atom_site_type_symbol
  _atom_site_label
  _atom_site_symmetry_multiplicity
  _atom_site_fract_x
  _atom_site_fract_y
  _atom_site_fract_z
  _atom_site_occupancy
  Se  Se1       1.0  0.24999983185629054  0.25000003362089457  0.2500000825709024  1.0000
  Se  Se2       1.0  0.7500000171716072  0.7499999518038927  0.7500000013390222  1.0000
  Mn  Mn1       1.0  2.194142085776309e-08  1.8402310875247644e-09  4.637145558724713e-09  1.0000
  Cl  Cl1       1.0  0.2410225878182043  0.24102259843604792  0.7589774365147405  1.0000
  Cl  Cl2       1.0  0.7589774548095859  0.7589773943496597  0.24102258447835023  1.0000
  Cl  Cl3       1.0  0.7589775296681368  0.24102251460798263  0.24102245481223325  1.0000
  Cl  Cl4       1.0  0.24102251863666205  0.7589775444260677  0.7589774400656105  1.0000
  Cl  Cl5       1.0  0.24102254211375962  0.7589774386127074  0.24102248837030626  1.0000
  Cl  Cl6       1.0  0.7589774878790143  0.24102251920859694  0.758977512848751  1.0000
