data_image0
_chemical_formula_structural       Se2MnI6
_chemical_formula_sum              "Se2 Mn1 I6"
_cell_length_a       7.466608346084152
_cell_length_b       7.4666083340475815
_cell_length_c       7.46660849341006
_cell_angle_alpha    60.000000499275465
_cell_angle_beta     60.0000001752193
_cell_angle_gamma    60.00000132905043

_space_group_name_H-M_alt    "P 1"
_space_group_IT_number       1

loop_
  _space_group_symop_operation_xyz
  'x, y, z'

loop_
  _atom_site_type_symbol
  _atom_site_label
  _atom_site_symmetry_multiplicity
  _atom_site_fract_x
  _atom_site_fract_y
  _atom_site_fract_z
  _atom_site_occupancy
  Se  Se1       1.0  0.24999998797536402  0.2500000135431938  0.24999998343411228  1.0000
  Se  Se2       1.0  0.7500000171016665  0.7499999553341845  0.7499999810945054  1.0000
  Mn  Mn1       1.0  0.9999999395771416  3.2805923127225806e-08  1.7318470926900335e-07  1.0000
  I   I1        1.0  0.23979520167991702  0.23979528222827393  0.7602047867205549  1.0000
  I   I2        1.0  0.7602048098939185  0.7602047785056874  0.23979521702491552  1.0000
  I   I3        1.0  0.7602048123856722  0.23979518086102564  0.2397951696426485  1.0000
  I   I4        1.0  0.23979529344885328  0.7602046945194749  0.7602047229515567  1.0000
  I   I5        1.0  0.23979519844035282  0.7602048087785013  0.23979519226603413  1.0000
  I   I6        1.0  0.7602047268894112  0.23979526015693867  0.7602047688036673  1.0000
