data_image0
_chemical_formula_structural       Se2MnS6
_chemical_formula_sum              "Se2 Mn1 S6"
_cell_length_a       6.323319571361309
_cell_length_b       6.3233195038325665
_cell_length_c       6.323319625050894
_cell_angle_alpha    60.000000352879525
_cell_angle_beta     59.99999909630878
_cell_angle_gamma    59.99999928096159

_space_group_name_H-M_alt    "P 1"
_space_group_IT_number       1

loop_
  _space_group_symop_operation_xyz
  'x, y, z'

loop_
  _atom_site_type_symbol
  _atom_site_label
  _atom_site_symmetry_multiplicity
  _atom_site_fract_x
  _atom_site_fract_y
  _atom_site_fract_z
  _atom_site_occupancy
  Se  Se1       1.0  0.2499998625649891  0.24999991008258815  0.2500001361052031  1.0000
  Se  Se2       1.0  0.7500001377682293  0.7500001234323943  0.7499996520260572  1.0000
  Mn  Mn1       1.0  4.962449345154199e-09  0.9999999631994678  4.912944519180931e-08  1.0000
  S   S1        1.0  0.24787453913006122  0.2478744594994187  0.7521255321977016  1.0000
  S   S2        1.0  0.7521254799452382  0.7521254849195412  0.24787456944534403  1.0000
  S   S3        1.0  0.7521255040529752  0.24787450706918226  0.24787456186879955  1.0000
  S   S4        1.0  0.24787448401339576  0.7521255632463366  0.7521254970747753  1.0000
  S   S5        1.0  0.24787446049631062  0.7521254789426729  0.24787455165750774  1.0000
  S   S6        1.0  0.7521255218164676  0.24787451002429892  0.7521254527873716  1.0000
