data_image0
_chemical_formula_structural       Se2MgCl6
_chemical_formula_sum              "Se2 Mg1 Cl6"
_cell_length_a       6.608740072281478
_cell_length_b       6.608740074406579
_cell_length_c       6.608740312842136
_cell_angle_alpha    59.99999519700489
_cell_angle_beta     59.99999816469394
_cell_angle_gamma    59.999997968805275

_space_group_name_H-M_alt    "P 1"
_space_group_IT_number       1

loop_
  _space_group_symop_operation_xyz
  'x, y, z'

loop_
  _atom_site_type_symbol
  _atom_site_label
  _atom_site_symmetry_multiplicity
  _atom_site_fract_x
  _atom_site_fract_y
  _atom_site_fract_z
  _atom_site_occupancy
  Se  Se1       1.0  0.2499999972426341  0.2499999804311125  0.24999997191628637  1.0000
  Se  Se2       1.0  0.7499999576825844  0.74999998577062  0.7499998454675261  1.0000
  Mg  Mg1       1.0  0.9999999907702692  0.9999999647888217  0.9999999722865824  1.0000
  Cl  Cl1       1.0  0.2550213972020512  0.2550213219654135  0.7449787210887088  1.0000
  Cl  Cl2       1.0  0.7449786584963496  0.744978735044085  0.25502138787042994  1.0000
  Cl  Cl3       1.0  0.7449786426110354  0.25502134439752977  0.2550214393765448  1.0000
  Cl  Cl4       1.0  0.2550213204144235  0.7449786551621499  0.7449786886575125  1.0000
  Cl  Cl5       1.0  0.25502138712678213  0.744978674041807  0.25502129291363534  1.0000
  Cl  Cl6       1.0  0.7449786354983718  0.25502134590329784  0.7449786771023429  1.0000
