data_image0
_chemical_formula_structural       Se2MnO6
_chemical_formula_sum              "Se2 Mn1 O6"
_cell_length_a       5.32174993201905
_cell_length_b       5.321749233482455
_cell_length_c       5.321749668135203
_cell_angle_alpha    59.99999864607943
_cell_angle_beta     59.999990187593966
_cell_angle_gamma    60.00000029823851

_space_group_name_H-M_alt    "P 1"
_space_group_IT_number       1

loop_
  _space_group_symop_operation_xyz
  'x, y, z'

loop_
  _atom_site_type_symbol
  _atom_site_label
  _atom_site_symmetry_multiplicity
  _atom_site_fract_x
  _atom_site_fract_y
  _atom_site_fract_z
  _atom_site_occupancy
  Se  Se1       1.0  0.24999994116782406  0.25000034155521583  0.24999981999152715  1.0000
  Se  Se2       1.0  0.7500000954293495  0.7499995839922056  0.750000177763094  1.0000
  Mn  Mn1       1.0  5.996402201727699e-08  4.142511840124519e-08  0.9999999417891  1.0000
  O   O1        1.0  0.25367613425855673  0.25367626088426193  0.7463239882263114  1.0000
  O   O2        1.0  0.7463239616632432  0.7463239293236302  0.25367596403879605  1.0000
  O   O3        1.0  0.7463237466726043  0.2536763237954374  0.25367622917163796  1.0000
  O   O4        1.0  0.25367635438621555  0.746323369311058  0.7463237980792589  1.0000
  O   O5        1.0  0.25367675671258083  0.7463232507089728  0.25367676121221067  1.0000
  O   O6        1.0  0.746322995662623  0.25367686355285013  0.7463233068451961  1.0000
