data_image0
_chemical_formula_structural       Se2MnBr6
_chemical_formula_sum              "Se2 Mn1 Br6"
_cell_length_a       7.190448065457803
_cell_length_b       7.19044784848992
_cell_length_c       7.190447715871299
_cell_angle_alpha    60.0000000934063
_cell_angle_beta     60.0000002764921
_cell_angle_gamma    60.000000136132876

_space_group_name_H-M_alt    "P 1"
_space_group_IT_number       1

loop_
  _space_group_symop_operation_xyz
  'x, y, z'

loop_
  _atom_site_type_symbol
  _atom_site_label
  _atom_site_symmetry_multiplicity
  _atom_site_fract_x
  _atom_site_fract_y
  _atom_site_fract_z
  _atom_site_occupancy
  Se  Se1       1.0  0.24999999347188104  0.2500000233658337  0.2500000273162977  1.0000
  Se  Se2       1.0  0.7499999136643697  0.750000173998452  0.7500000466852469  1.0000
  Mn  Mn1       1.0  0.9999999958642485  0.99999996423082  0.9999999684953085  1.0000
  Br  Br1       1.0  0.23551862715180985  0.23551870172193473  0.7644813189397918  1.0000
  Br  Br2       1.0  0.7644814099829884  0.7644813031700978  0.2355186472252068  1.0000
  Br  Br3       1.0  0.7644813351976157  0.2355186677203234  0.23551865287830848  1.0000
  Br  Br4       1.0  0.23551865945510808  0.7644812911827632  0.7644813477870629  1.0000
  Br  Br5       1.0  0.23551871138966923  0.7644812626631783  0.23551865109896128  1.0000
  Br  Br6       1.0  0.764481358789612  0.23551860937190014  0.7644813218595196  1.0000
