data_image0
_chemical_formula_structural       Se2MgF6
_chemical_formula_sum              "Se2 Mg1 F6"
_cell_length_a       5.100537216348262
_cell_length_b       5.100537239111213
_cell_length_c       5.100537225512612
_cell_angle_alpha    59.9999998932927
_cell_angle_beta     60.00000030625878
_cell_angle_gamma    59.999999649546254

_space_group_name_H-M_alt    "P 1"
_space_group_IT_number       1

loop_
  _space_group_symop_operation_xyz
  'x, y, z'

loop_
  _atom_site_type_symbol
  _atom_site_label
  _atom_site_symmetry_multiplicity
  _atom_site_fract_x
  _atom_site_fract_y
  _atom_site_fract_z
  _atom_site_occupancy
  Se  Se1       1.0  0.249999980541371  0.24999998466222242  0.2500000250228116  1.0000
  Se  Se2       1.0  0.7500000401126622  0.7500000524361781  0.7500000354167384  1.0000
  Mg  Mg1       1.0  3.703795913607748e-09  4.322173677322336e-08  0.9999999432074111  1.0000
  F   F1        1.0  0.2547121669658645  0.25471211502543195  0.7452878660946473  1.0000
  F   F2        1.0  0.7452878314849097  0.7452878596415715  0.2547121111852523  1.0000
  F   F3        1.0  0.7452878856954318  0.2547121519790301  0.2547121003759514  1.0000
  F   F4        1.0  0.2547121026247642  0.7452878394964266  0.7452878912102104  1.0000
  F   F5        1.0  0.254712101281227  0.7452878652703172  0.2547121573859194  1.0000
  F   F6        1.0  0.7452878923906939  0.2547120829834028  0.7452878688198707  1.0000
