data_image0
_chemical_formula_structural       Se2MgBr6
_chemical_formula_sum              "Se2 Mg1 Br6"
_cell_length_a       7.099792028865666
_cell_length_b       7.099792019492535
_cell_length_c       7.0997920130710845
_cell_angle_alpha    60.000001159397556
_cell_angle_beta     60.00000090300476
_cell_angle_gamma    59.99999968471283

_space_group_name_H-M_alt    "P 1"
_space_group_IT_number       1

loop_
  _space_group_symop_operation_xyz
  'x, y, z'

loop_
  _atom_site_type_symbol
  _atom_site_label
  _atom_site_symmetry_multiplicity
  _atom_site_fract_x
  _atom_site_fract_y
  _atom_site_fract_z
  _atom_site_occupancy
  Se  Se1       1.0  0.2499999986240871  0.24999996590500442  0.2500000162905325  1.0000
  Se  Se2       1.0  0.7500000028033829  0.7499999891423079  0.7500000067348498  1.0000
  Mg  Mg1       1.0  1.0727960813798556e-08  0.9999999775744373  2.6976180311341476e-08  1.0000
  Br  Br1       1.0  0.25379502101640405  0.25379502454299385  0.7462049763195283  1.0000
  Br  Br2       1.0  0.7462050063993944  0.7462049891557903  0.2537950057944465  1.0000
  Br  Br3       1.0  0.7462049863086078  0.2537950147230725  0.25379501893499296  1.0000
  Br  Br4       1.0  0.25379501651408054  0.746205009325972  0.746204997061754  1.0000
  Br  Br5       1.0  0.253794988440014  0.7462050080145034  0.25379500684681894  1.0000
  Br  Br6       1.0  0.7462049659687819  0.2537950246597574  0.746204947351732  1.0000
