data_image0
_chemical_formula_structural       Se2MgI6
_chemical_formula_sum              "Se2 Mg1 I6"
_cell_length_a       7.56555224050639
_cell_length_b       7.565552200460351
_cell_length_c       7.565552292477166
_cell_angle_alpha    59.99999928845732
_cell_angle_beta     59.99999945554439
_cell_angle_gamma    59.999999698949985

_space_group_name_H-M_alt    "P 1"
_space_group_IT_number       1

loop_
  _space_group_symop_operation_xyz
  'x, y, z'

loop_
  _atom_site_type_symbol
  _atom_site_label
  _atom_site_symmetry_multiplicity
  _atom_site_fract_x
  _atom_site_fract_y
  _atom_site_fract_z
  _atom_site_occupancy
  Se  Se1       1.0  0.24999997356636353  0.2500000262072061  0.24999999810506032  1.0000
  Se  Se2       1.0  0.7500000107194308  0.7499999733967585  0.749999979447171  1.0000
  Mg  Mg1       1.0  1.8222545912001914e-08  4.856532197463821e-09  0.9999999263367743  1.0000
  I   I1        1.0  0.2623324423834911  0.26233246449256603  0.7376675463143896  1.0000
  I   I2        1.0  0.737667550258388  0.7376675237794904  0.2623324816316344  1.0000
  I   I3        1.0  0.7376674981156744  0.2623324938167012  0.26233251843829386  1.0000
  I   I4        1.0  0.2623324615330115  0.7376675705410233  0.7376675196842263  1.0000
  I   I5        1.0  0.26233250079854625  0.7376674939328991  0.2623324787358993  1.0000
  I   I6        1.0  0.7376675501348757  0.2623324522492136  0.7376675463964476  1.0000
