data_image0
_chemical_formula_structural       Se2MoO6
_chemical_formula_sum              "Se2 Mo1 O6"
_cell_length_a       5.372955626816712
_cell_length_b       5.3729558022729185
_cell_length_c       5.372955629523489
_cell_angle_alpha    59.99999918187851
_cell_angle_beta     59.99999994257643
_cell_angle_gamma    60.000000212226425

_space_group_name_H-M_alt    "P 1"
_space_group_IT_number       1

loop_
  _space_group_symop_operation_xyz
  'x, y, z'

loop_
  _atom_site_type_symbol
  _atom_site_label
  _atom_site_symmetry_multiplicity
  _atom_site_fract_x
  _atom_site_fract_y
  _atom_site_fract_z
  _atom_site_occupancy
  Se  Se1       1.0  0.24999982072979565  0.24999962375368126  0.2500003309361626  1.0000
  Se  Se2       1.0  0.7499998627963604  0.7499997648101678  0.7500000833050318  1.0000
  Mo  Mo1       1.0  0.9999999824608601  0.9999999430134482  8.006982591722797e-08  1.0000
  O   O1        1.0  0.24905041413589799  0.24905052951236734  0.7509495134790867  1.0000
  O   O2        1.0  0.7509495781746003  0.7509496089944908  0.24905042537243874  1.0000
  O   O3        1.0  0.7509495451956387  0.2490505626966284  0.2490503490784296  1.0000
  O   O4        1.0  0.24905057801234098  0.7509496989011806  0.7509494218330716  1.0000
  O   O5        1.0  0.24905053547031178  0.7509497368835821  0.24905038828571555  1.0000
  O   O6        1.0  0.7509496906336183  0.2490505383909977  0.7509493950639993  1.0000
