data_image0
_chemical_formula_structural       Se2NiI6
_chemical_formula_sum              "Se2 Ni1 I6"
_cell_length_a       7.3178840527878615
_cell_length_b       7.317884099184273
_cell_length_c       7.317883962085583
_cell_angle_alpha    60.000000793058
_cell_angle_beta     60.0000004131691
_cell_angle_gamma    60.000001128110085

_space_group_name_H-M_alt    "P 1"
_space_group_IT_number       1

loop_
  _space_group_symop_operation_xyz
  'x, y, z'

loop_
  _atom_site_type_symbol
  _atom_site_label
  _atom_site_symmetry_multiplicity
  _atom_site_fract_x
  _atom_site_fract_y
  _atom_site_fract_z
  _atom_site_occupancy
  Se  Se1       1.0  0.24999997648816785  0.25000001199051836  0.2500000155171945  1.0000
  Se  Se2       1.0  0.7499999991006566  0.7499999974780082  0.7500000104825518  1.0000
  Ni  Ni1       1.0  2.502237644059069e-09  6.694529953367314e-09  0.9999999872025247  1.0000
  I   I1        1.0  0.2530205819629762  0.2530205798801837  0.7469794273299718  1.0000
  I   I2        1.0  0.7469794161952534  0.7469794044838556  0.25302059583776965  1.0000
  I   I3        1.0  0.7469794343786356  0.2530205674589671  0.25302058277808553  1.0000
  I   I4        1.0  0.25302058735261546  0.7469794219259696  0.7469793987623916  1.0000
  I   I5        1.0  0.2530205822710893  0.7469794276558803  0.25302057253604504  1.0000
  I   I6        1.0  0.7469794201423048  0.2530205818126463  0.7469794099880807  1.0000
