data_image0
_chemical_formula_structural       Se2NbI6
_chemical_formula_sum              "Se2 Nb1 I6"
_cell_length_a       7.778343913173716
_cell_length_b       7.778343864373154
_cell_length_c       7.778343829415646
_cell_angle_alpha    59.999999369262454
_cell_angle_beta     59.99999974907652
_cell_angle_gamma    59.999999041327634

_space_group_name_H-M_alt    "P 1"
_space_group_IT_number       1

loop_
  _space_group_symop_operation_xyz
  'x, y, z'

loop_
  _atom_site_type_symbol
  _atom_site_label
  _atom_site_symmetry_multiplicity
  _atom_site_fract_x
  _atom_site_fract_y
  _atom_site_fract_z
  _atom_site_occupancy
  Se  Se1       1.0  0.2500000073047687  0.24999995161646646  0.250000058454315  1.0000
  Se  Se2       1.0  0.75000002312601  0.7500000249015984  0.7499999714538863  1.0000
  Nb  Nb1       1.0  0.9999999976149884  4.723672213086376e-08  0.9999999235780742  1.0000
  I   I1        1.0  0.24783714259181427  0.24783713160048743  0.7521628436688863  1.0000
  I   I2        1.0  0.7521628562295171  0.7521628417684633  0.24783715605062928  1.0000
  I   I3        1.0  0.752162846083672  0.2478371241062316  0.24783718427804316  1.0000
  I   I4        1.0  0.24783712415637502  0.7521628949248833  0.7521628351846881  1.0000
  I   I5        1.0  0.24783715001516662  0.7521628399652224  0.2478371904392541  1.0000
  I   I6        1.0  0.7521628536044369  0.24783714127651496  0.7521628440845952  1.0000
