data_image0
_chemical_formula_structural       Se2NbO6
_chemical_formula_sum              "Se2 Nb1 O6"
_cell_length_a       5.357903099036487
_cell_length_b       5.357903108743994
_cell_length_c       5.357902972834405
_cell_angle_alpha    59.99999913791356
_cell_angle_beta     59.99999979754142
_cell_angle_gamma    59.99999842774815

_space_group_name_H-M_alt    "P 1"
_space_group_IT_number       1

loop_
  _space_group_symop_operation_xyz
  'x, y, z'

loop_
  _atom_site_type_symbol
  _atom_site_label
  _atom_site_symmetry_multiplicity
  _atom_site_fract_x
  _atom_site_fract_y
  _atom_site_fract_z
  _atom_site_occupancy
  Se  Se1       1.0  0.2499999578189021  0.24999995757035398  0.2500000248403942  1.0000
  Se  Se2       1.0  0.7499998791338726  0.7500001401573857  0.7500002795109718  1.0000
  Nb  Nb1       1.0  5.437887296349537e-08  1.1429329725659844e-08  0.9999999596302908  1.0000
  O   O1        1.0  0.2572885550615616  0.2572885456349441  0.7427114233756749  1.0000
  O   O2        1.0  0.7427115131667646  0.742711478945085  0.2572883913033637  1.0000
  O   O3        1.0  0.7427114565937747  0.2572884837237057  0.25728854986991695  1.0000
  O   O4        1.0  0.25728852789060214  0.7427114494216807  0.7427114326536988  1.0000
  O   O5        1.0  0.25728859669720816  0.7427115095574528  0.2572884866583744  1.0000
  O   O6        1.0  0.7427114964366139  0.257288414444468  0.7427114442458489  1.0000
