data_image0
_chemical_formula_structural       Se2NiCl6
_chemical_formula_sum              "Se2 Ni1 Cl6"
_cell_length_a       6.5721850487941875
_cell_length_b       6.572185363129425
_cell_length_c       6.572185079313619
_cell_angle_alpha    59.99999977101825
_cell_angle_beta     59.999998806461626
_cell_angle_gamma    59.99999993229577

_space_group_name_H-M_alt    "P 1"
_space_group_IT_number       1

loop_
  _space_group_symop_operation_xyz
  'x, y, z'

loop_
  _atom_site_type_symbol
  _atom_site_label
  _atom_site_symmetry_multiplicity
  _atom_site_fract_x
  _atom_site_fract_y
  _atom_site_fract_z
  _atom_site_occupancy
  Se  Se1       1.0  0.24999996412753087  0.2499997816858386  0.2500001205275085  1.0000
  Se  Se2       1.0  0.7500001071960765  0.7500001501014287  0.7499998501322513  1.0000
  Ni  Ni1       1.0  0.9999999697238152  0.9999999906823633  0.9999999467618407  1.0000
  Cl  Cl1       1.0  0.2436608432817014  0.24366080819935265  0.7563392104789024  1.0000
  Cl  Cl2       1.0  0.7563391790055821  0.7563392074466551  0.24366081580471882  1.0000
  Cl  Cl3       1.0  0.7563391482398918  0.24366089269782354  0.24366080951248742  1.0000
  Cl  Cl4       1.0  0.24366079049322936  0.7563392049433986  0.7563391932055842  1.0000
  Cl  Cl5       1.0  0.24366084340985686  0.7563391044773652  0.24366088407614325  1.0000
  Cl  Cl6       1.0  0.7563391490458342  0.24366084780870523  0.7563391796738601  1.0000
