data_image0
_chemical_formula_structural       Se2NiO6
_chemical_formula_sum              "Se2 Ni1 O6"
_cell_length_a       5.270649118657213
_cell_length_b       5.27064913315619
_cell_length_c       5.2706490343337515
_cell_angle_alpha    59.99999988790049
_cell_angle_beta     60.000000312429876
_cell_angle_gamma    60.00000058733146

_space_group_name_H-M_alt    "P 1"
_space_group_IT_number       1

loop_
  _space_group_symop_operation_xyz
  'x, y, z'

loop_
  _atom_site_type_symbol
  _atom_site_label
  _atom_site_symmetry_multiplicity
  _atom_site_fract_x
  _atom_site_fract_y
  _atom_site_fract_z
  _atom_site_occupancy
  Se  Se1       1.0  0.24999983031589476  0.25000000479496487  0.24999998063195575  1.0000
  Se  Se2       1.0  0.7500007220743593  0.749999981852992  0.7499994317715578  1.0000
  Ni  Ni1       1.0  0.9999999900634946  2.3237078437339075e-08  0.999999978171317  1.0000
  O   O1        1.0  0.24033417260681172  0.24033454056320475  0.7596656503553111  1.0000
  O   O2        1.0  0.7596656909151709  0.7596655343856425  0.24033450629998654  1.0000
  O   O3        1.0  0.7596657217679107  0.240334227371546  0.2403344777928569  1.0000
  O   O4        1.0  0.2403341454523319  0.7596656918888767  0.7596656656844453  1.0000
  O   O5        1.0  0.2403341058569341  0.7596656957748418  0.24033467095049987  1.0000
  O   O6        1.0  0.7596656127183232  0.24033432108130814  0.7596656479380949  1.0000
