data_image0
_chemical_formula_structural       Se2NiBr6
_chemical_formula_sum              "Se2 Ni1 Br6"
_cell_length_a       7.042172630617509
_cell_length_b       7.0421725978880705
_cell_length_c       7.042172438750782
_cell_angle_alpha    60.000000787345364
_cell_angle_beta     60.000000546296405
_cell_angle_gamma    60.00000026844092

_space_group_name_H-M_alt    "P 1"
_space_group_IT_number       1

loop_
  _space_group_symop_operation_xyz
  'x, y, z'

loop_
  _atom_site_type_symbol
  _atom_site_label
  _atom_site_symmetry_multiplicity
  _atom_site_fract_x
  _atom_site_fract_y
  _atom_site_fract_z
  _atom_site_occupancy
  Se  Se1       1.0  0.2499999826522853  0.24999999487189808  0.24999998233082918  1.0000
  Se  Se2       1.0  0.7499999882700119  0.749999991572325  0.7500000270187875  1.0000
  Ni  Ni1       1.0  0.9999999952798475  0.9999999895650539  0.9999999962174185  1.0000
  Br  Br1       1.0  0.24214012390043285  0.24214013173608243  0.7578598774624715  1.0000
  Br  Br2       1.0  0.7578598750785179  0.7578598738388753  0.24214011397351634  1.0000
  Br  Br3       1.0  0.7578598850487235  0.24214012524129783  0.24214010313138343  1.0000
  Br  Br4       1.0  0.2421401497221594  0.7578598664203983  0.7578598915654329  1.0000
  Br  Br5       1.0  0.24214011520500375  0.7578598968006861  0.242140110912351  1.0000
  Br  Br6       1.0  0.7578598826969074  0.24214013660079448  0.7578598870291241  1.0000
