data_image0
_chemical_formula_structural       Se2NbBr6
_chemical_formula_sum              "Se2 Nb1 Br6"
_cell_length_a       7.566582278962478
_cell_length_b       7.566581884329144
_cell_length_c       7.566581998793675
_cell_angle_alpha    59.99999771580514
_cell_angle_beta     59.999998840940705
_cell_angle_gamma    59.999998494812935

_space_group_name_H-M_alt    "P 1"
_space_group_IT_number       1

loop_
  _space_group_symop_operation_xyz
  'x, y, z'

loop_
  _atom_site_type_symbol
  _atom_site_label
  _atom_site_symmetry_multiplicity
  _atom_site_fract_x
  _atom_site_fract_y
  _atom_site_fract_z
  _atom_site_occupancy
  Se  Se1       1.0  0.2500000044268661  0.24999989993513508  0.2500000334163976  1.0000
  Se  Se2       1.0  0.7500000692921317  0.7500000170556577  0.7499999889495339  1.0000
  Nb  Nb1       1.0  2.335364869627397e-08  0.9999999757206443  0.9999999846036451  1.0000
  Br  Br1       1.0  0.23578405751364068  0.23578403987700491  0.7642159704695688  1.0000
  Br  Br2       1.0  0.7642159341052469  0.764215967756717  0.23578401854973818  1.0000
  Br  Br3       1.0  0.7642158980773899  0.23578407126874526  0.23578406586083617  1.0000
  Br  Br4       1.0  0.23578402986247562  0.7642159946354302  0.7642159787267834  1.0000
  Br  Br5       1.0  0.23578407344561375  0.764215984374578  0.23578400683969186  1.0000
  Br  Br6       1.0  0.7642159048698847  0.23578405401299501  0.7642159628815786  1.0000
