data_image0
_chemical_formula_structural       Se2OsO6
_chemical_formula_sum              "Se2 Os1 O6"
_cell_length_a       5.588158432039127
_cell_length_b       5.5881580876627
_cell_length_c       5.588158092801219
_cell_angle_alpha    59.99999825387933
_cell_angle_beta     59.99999876596736
_cell_angle_gamma    60.00000082515946

_space_group_name_H-M_alt    "P 1"
_space_group_IT_number       1

loop_
  _space_group_symop_operation_xyz
  'x, y, z'

loop_
  _atom_site_type_symbol
  _atom_site_label
  _atom_site_symmetry_multiplicity
  _atom_site_fract_x
  _atom_site_fract_y
  _atom_site_fract_z
  _atom_site_occupancy
  Se  Se1       1.0  0.24999938427767104  0.25000210079139723  0.25000057476056875  1.0000
  Se  Se2       1.0  0.7500002357759169  0.7500017458735878  0.7499987521603131  1.0000
  Os  Os1       1.0  7.892995828996616e-09  0.999999802748888  3.920460987526271e-08  1.0000
  O   O1        1.0  0.23774351369732546  0.2377429050656888  0.7622562765705999  1.0000
  O   O2        1.0  0.7622571357872985  0.762256043196708  0.23774369281824737  1.0000
  O   O3        1.0  0.7622564923177777  0.23774272927527948  0.23774372250534453  1.0000
  O   O4        1.0  0.2377429764768625  0.762256153236706  0.762257050843069  1.0000
  O   O5        1.0  0.237743407064674  0.7622559729112395  0.237743280728247  1.0000
  O   O6        1.0  0.7622568324156699  0.23774258742395865  0.7622566295147626  1.0000
