data_image0
_chemical_formula_structural       Se2PdCl6
_chemical_formula_sum              "Se2 Pd1 Cl6"
_cell_length_a       6.821375636257306
_cell_length_b       6.821374965153442
_cell_length_c       6.821375607798488
_cell_angle_alpha    59.99999526257741
_cell_angle_beta     59.99999813100973
_cell_angle_gamma    59.999996242710814

_space_group_name_H-M_alt    "P 1"
_space_group_IT_number       1

loop_
  _space_group_symop_operation_xyz
  'x, y, z'

loop_
  _atom_site_type_symbol
  _atom_site_label
  _atom_site_symmetry_multiplicity
  _atom_site_fract_x
  _atom_site_fract_y
  _atom_site_fract_z
  _atom_site_occupancy
  Se  Se1       1.0  0.24999986667692511  0.24999987975721294  0.2499999712927547  1.0000
  Se  Se2       1.0  0.7500006424969102  0.7499999498847906  0.7499995847758538  1.0000
  Pd  Pd1       1.0  0.999999956483836  3.5909036748793673e-09  0.9999999745172518  1.0000
  Cl  Cl1       1.0  0.24147092343470838  0.24147117337374494  0.7585289863452181  1.0000
  Cl  Cl2       1.0  0.75852890828565  0.7585289112223963  0.24147110055670012  1.0000
  Cl  Cl3       1.0  0.7585288441433764  0.24147110218401371  0.24147117608035285  1.0000
  Cl  Cl4       1.0  0.24147094209523473  0.7585289411167369  0.7585290187132543  1.0000
  Cl  Cl5       1.0  0.24147103960500416  0.7585289592648361  0.24147117623927802  1.0000
  Cl  Cl6       1.0  0.7585288633319058  0.24147108942226964  0.7585290220151191  1.0000
