data_image0
_chemical_formula_structural       Se2PdBr6
_chemical_formula_sum              "Se2 Pd1 Br6"
_cell_length_a       7.14060357733676
_cell_length_b       7.140603537983816
_cell_length_c       7.140603344340737
_cell_angle_alpha    60.000000421985
_cell_angle_beta     60.00000016086408
_cell_angle_gamma    60.000000701002875

_space_group_name_H-M_alt    "P 1"
_space_group_IT_number       1

loop_
  _space_group_symop_operation_xyz
  'x, y, z'

loop_
  _atom_site_type_symbol
  _atom_site_label
  _atom_site_symmetry_multiplicity
  _atom_site_fract_x
  _atom_site_fract_y
  _atom_site_fract_z
  _atom_site_occupancy
  Se  Se1       1.0  0.2499999957848447  0.2500000019244585  0.24999996319730333  1.0000
  Se  Se2       1.0  0.7499999780106993  0.7500000435074222  0.7500000000361317  1.0000
  Pd  Pd1       1.0  1.2642448401789341e-08  1.543665567154076e-08  2.7657504274012896e-09  1.0000
  Br  Br1       1.0  0.24779347936002852  0.24779346138563774  0.7522065292103447  1.0000
  Br  Br2       1.0  0.7522065283468219  0.752206501717413  0.24779347643759647  1.0000
  Br  Br3       1.0  0.7522065230383455  0.24779347875993277  0.2477934654041824  1.0000
  Br  Br4       1.0  0.2477934706695846  0.7522065117860612  0.7522065475261663  1.0000
  Br  Br5       1.0  0.2477934836734504  0.7522065110367734  0.24779348744390498  1.0000
  Br  Br6       1.0  0.7522065311547547  0.24779347436366905  0.7522065231008492  1.0000
