data_image0
_chemical_formula_structural       Se2PO6
_chemical_formula_sum              "Se2 P1 O6"
_cell_length_a       5.464945206946129
_cell_length_b       5.464945525457204
_cell_length_c       5.464945087845774
_cell_angle_alpha    59.999998522228545
_cell_angle_beta     59.99999914101108
_cell_angle_gamma    59.999998256358765

_space_group_name_H-M_alt    "P 1"
_space_group_IT_number       1

loop_
  _space_group_symop_operation_xyz
  'x, y, z'

loop_
  _atom_site_type_symbol
  _atom_site_label
  _atom_site_symmetry_multiplicity
  _atom_site_fract_x
  _atom_site_fract_y
  _atom_site_fract_z
  _atom_site_occupancy
  Se  Se1       1.0  0.2499993591111438  0.25000019918582217  0.25000059361918225  1.0000
  Se  Se2       1.0  0.7499990982268385  0.7499999879802869  0.750000964031359  1.0000
  P   P1        1.0  3.205635732711953e-08  1.7928740175558167e-08  0.9999999713477612  1.0000
  O   O1        1.0  0.21989341451114106  0.21989318248287001  0.7801065881126081  1.0000
  O   O2        1.0  0.7801070796256867  0.7801066752426352  0.21989292645983924  1.0000
  O   O3        1.0  0.7801069603618569  0.21989321145473717  0.21989301976406672  1.0000
  O   O4        1.0  0.21989351379550495  0.7801068076294314  0.7801065064617819  1.0000
  O   O5        1.0  0.2198935242298395  0.78010672067867  0.2198929523073378  1.0000
  O   O6        1.0  0.7801070046731381  0.21989319755633235  0.7801065622032423  1.0000
