data_image0
_chemical_formula_structural       Se2PtS6
_chemical_formula_sum              "Se2 Pt1 S6"
_cell_length_a       6.295707115003141
_cell_length_b       6.295707033273088
_cell_length_c       6.295707095927056
_cell_angle_alpha    60.000000213408775
_cell_angle_beta     60.00000094101953
_cell_angle_gamma    59.99999977091345

_space_group_name_H-M_alt    "P 1"
_space_group_IT_number       1

loop_
  _space_group_symop_operation_xyz
  'x, y, z'

loop_
  _atom_site_type_symbol
  _atom_site_label
  _atom_site_symmetry_multiplicity
  _atom_site_fract_x
  _atom_site_fract_y
  _atom_site_fract_z
  _atom_site_occupancy
  Se  Se1       1.0  0.2500000967255396  0.24999996472021702  0.24999997697950618  1.0000
  Se  Se2       1.0  0.750000018598322  0.7499999330679531  0.7499998074280405  1.0000
  Pt  Pt1       1.0  0.9999999692461082  9.726825517439666e-09  0.999999986687774  1.0000
  S   S1        1.0  0.2589314983281183  0.2589315322544454  0.7410684801208801  1.0000
  S   S2        1.0  0.7410684494783846  0.7410684939278226  0.2589315684594221  1.0000
  S   S3        1.0  0.7410684795644049  0.25893146193076466  0.25893158587170245  1.0000
  S   S4        1.0  0.2589315571693298  0.7410685175627408  0.7410684812989639  1.0000
  S   S5        1.0  0.25893145809670437  0.7410684888937179  0.25893159792144455  1.0000
  S   S6        1.0  0.7410684635681721  0.25893159370413815  0.7410685228829932  1.0000
