data_image0
_chemical_formula_structural       Se2PdS6
_chemical_formula_sum              "Se2 Pd1 S6"
_cell_length_a       6.340865956314619
_cell_length_b       6.340865960765411
_cell_length_c       6.34086611800352
_cell_angle_alpha    60.000001940474704
_cell_angle_beta     60.00000260442319
_cell_angle_gamma    60.00000195553992

_space_group_name_H-M_alt    "P 1"
_space_group_IT_number       1

loop_
  _space_group_symop_operation_xyz
  'x, y, z'

loop_
  _atom_site_type_symbol
  _atom_site_label
  _atom_site_symmetry_multiplicity
  _atom_site_fract_x
  _atom_site_fract_y
  _atom_site_fract_z
  _atom_site_occupancy
  Se  Se1       1.0  0.24999990952559242  0.24999993895585892  0.2500000387580612  1.0000
  Se  Se2       1.0  0.7499999736256975  0.749999890264968  0.7499996905259321  1.0000
  Pd  Pd1       1.0  0.9999999892757058  2.124661501445242e-08  4.0473916729694924e-08  1.0000
  S   S1        1.0  0.26352813665095226  0.26352815613420916  0.7364719009832075  1.0000
  S   S2        1.0  0.7364718754220299  0.7364719473611043  0.2635282165274914  1.0000
  S   S3        1.0  0.7364718624830239  0.26352809869370064  0.26352823723741153  1.0000
  S   S4        1.0  0.2635281913288824  0.7364718850479679  0.7364718561977813  1.0000
  S   S5        1.0  0.26352812123302843  0.7364718493671374  0.2635281654096305  1.0000
  S   S6        1.0  0.7364719457111971  0.26352820970343604  0.7364718617159499  1.0000
