data_image0
_chemical_formula_structural       Se2PtO6
_chemical_formula_sum              "Se2 Pt1 O6"
_cell_length_a       5.392355045665912
_cell_length_b       5.392355166069484
_cell_length_c       5.392355304332036
_cell_angle_alpha    59.999997562365444
_cell_angle_beta     60.00000024998179
_cell_angle_gamma    60.000002755210346

_space_group_name_H-M_alt    "P 1"
_space_group_IT_number       1

loop_
  _space_group_symop_operation_xyz
  'x, y, z'

loop_
  _atom_site_type_symbol
  _atom_site_label
  _atom_site_symmetry_multiplicity
  _atom_site_fract_x
  _atom_site_fract_y
  _atom_site_fract_z
  _atom_site_occupancy
  Se  Se1       1.0  0.2500005567242829  0.2499984086006349  0.2500021270893999  1.0000
  Se  Se2       1.0  0.7500003009772348  0.7499989029743699  0.7500012271723768  1.0000
  Pt  Pt1       1.0  0.9999999420494018  2.3166868186768153e-07  0.9999995960253523  1.0000
  O   O1        1.0  0.24833081508714192  0.24833153311393202  0.7516682265641307  1.0000
  O   O2        1.0  0.7516685308380586  0.751669221693581  0.24833070522397546  1.0000
  O   O3        1.0  0.7516683258713929  0.24833178230963981  0.24833053661406318  1.0000
  O   O4        1.0  0.24833117567184582  0.7516695334994735  0.7516682148940312  1.0000
  O   O5        1.0  0.24833108212125946  0.7516692144581835  0.2483310098329112  1.0000
  O   O6        1.0  0.7516691969052545  0.2483311565061507  0.7516683501730064  1.0000
