data_image0
_chemical_formula_structural       Se2PdO6
_chemical_formula_sum              "Se2 Pd1 O6"
_cell_length_a       4.604318924624606
_cell_length_b       4.604319944683899
_cell_length_c       4.604319926448659
_cell_angle_alpha    59.999993222433126
_cell_angle_beta     59.99999144325893
_cell_angle_gamma    59.99999343190721

_space_group_name_H-M_alt    "P 1"
_space_group_IT_number       1

loop_
  _space_group_symop_operation_xyz
  'x, y, z'

loop_
  _atom_site_type_symbol
  _atom_site_label
  _atom_site_symmetry_multiplicity
  _atom_site_fract_x
  _atom_site_fract_y
  _atom_site_fract_z
  _atom_site_occupancy
  Se  Se1       1.0  0.2500022037684962  0.25000054182179193  0.24999945791440176  1.0000
  Se  Se2       1.0  0.7499990323578604  0.7500004071901883  0.7499999402318336  1.0000
  Pd  Pd1       1.0  0.9999971207466585  0.9999983454858292  1.854227925005821e-06  1.0000
  O   O1        1.0  0.2640503442710661  0.2640494860282486  0.7359493654360556  1.0000
  O   O2        1.0  0.7359530710356972  0.7359545405932083  0.2640464660657436  1.0000
  O   O3        1.0  0.7359498154336782  0.26404790757967334  0.2640485760986036  1.0000
  O   O4        1.0  0.26404896773298725  0.7359509506796363  0.7359520796390664  1.0000
  O   O5        1.0  0.2640487405152597  0.735949966437678  0.26404878974286244  1.0000
  O   O6        1.0  0.7359506370070209  0.2640478836849153  0.7359535193530932  1.0000
