data_image0
_chemical_formula_structural       Se2PS6
_chemical_formula_sum              "Se2 P1 S6"
_cell_length_a       6.412594046407796
_cell_length_b       6.412593843401191
_cell_length_c       6.41259421886836
_cell_angle_alpha    59.99999942311961
_cell_angle_beta     59.99999923732308
_cell_angle_gamma    59.999998345898454

_space_group_name_H-M_alt    "P 1"
_space_group_IT_number       1

loop_
  _space_group_symop_operation_xyz
  'x, y, z'

loop_
  _atom_site_type_symbol
  _atom_site_label
  _atom_site_symmetry_multiplicity
  _atom_site_fract_x
  _atom_site_fract_y
  _atom_site_fract_z
  _atom_site_occupancy
  Se  Se1       1.0  0.2500005144637267  0.25000030319964883  0.24999932428436356  1.0000
  Se  Se2       1.0  0.7500002321343068  0.7499998897093628  0.7499987204987246  1.0000
  P   P1        1.0  0.9999998696429305  0.9999999427028373  3.698464516470923e-07  1.0000
  S   S1        1.0  0.24158003616494356  0.24158051865708302  0.7584198970177061  1.0000
  S   S2        1.0  0.7584197885618319  0.7584195443783855  0.24158068842299227  1.0000
  S   S3        1.0  0.7584193939042457  0.24158007514966134  0.24158074262172533  1.0000
  S   S4        1.0  0.2415805517832213  0.7584196250037392  0.7584197002357714  1.0000
  S   S5        1.0  0.24158015832672866  0.7584197337877606  0.24158062323576912  1.0000
  S   S6        1.0  0.7584194432971739  0.24158038272506518  0.7584199581301044  1.0000
