data_image0
_chemical_formula_structural       Se2PdF6
_chemical_formula_sum              "Se2 Pd1 F6"
_cell_length_a       5.241128267345078
_cell_length_b       5.2411282171721245
_cell_length_c       5.241128119535862
_cell_angle_alpha    59.999999213547916
_cell_angle_beta     59.99999936886323
_cell_angle_gamma    59.99999940767871

_space_group_name_H-M_alt    "P 1"
_space_group_IT_number       1

loop_
  _space_group_symop_operation_xyz
  'x, y, z'

loop_
  _atom_site_type_symbol
  _atom_site_label
  _atom_site_symmetry_multiplicity
  _atom_site_fract_x
  _atom_site_fract_y
  _atom_site_fract_z
  _atom_site_occupancy
  Se  Se1       1.0  0.24999997888395398  0.2500000214353624  0.249999994279348  1.0000
  Se  Se2       1.0  0.7500000507500121  0.7499999731710323  0.7500000362280261  1.0000
  Pd  Pd1       1.0  0.9999999945474752  1.635757369456564e-08  7.903378659838695e-09  1.0000
  F   F1        1.0  0.2571482914158513  0.257148301914368  0.7428517033818609  1.0000
  F   F2        1.0  0.7428516988286556  0.7428516786712496  0.2571482927750741  1.0000
  F   F3        1.0  0.7428516877307534  0.25714831637945745  0.25714827960975883  1.0000
  F   F4        1.0  0.25714829381185683  0.7428516969213077  0.7428517102645091  1.0000
  F   F5        1.0  0.2571482937513282  0.7428517134580033  0.25714827674449703  1.0000
  F   F6        1.0  0.7428516945343837  0.2571482928323731  0.7428516960915387  1.0000
