data_image0
_chemical_formula_structural       Se2PtBr6
_chemical_formula_sum              "Se2 Pt1 Br6"
_cell_length_a       7.122687916315308
_cell_length_b       7.122688241152377
_cell_length_c       7.12268796560264
_cell_angle_alpha    59.99999960893907
_cell_angle_beta     59.999999286980426
_cell_angle_gamma    60.0000008853265

_space_group_name_H-M_alt    "P 1"
_space_group_IT_number       1

loop_
  _space_group_symop_operation_xyz
  'x, y, z'

loop_
  _atom_site_type_symbol
  _atom_site_label
  _atom_site_symmetry_multiplicity
  _atom_site_fract_x
  _atom_site_fract_y
  _atom_site_fract_z
  _atom_site_occupancy
  Se  Se1       1.0  0.2499999799132602  0.2500000280295543  0.24999996348458667  1.0000
  Se  Se2       1.0  0.7500000288557691  0.7500000015527537  0.7500000177324057  1.0000
  Pt  Pt1       1.0  2.6315021373764122e-08  8.597490735120352e-09  0.9999999671001358  1.0000
  Br  Br1       1.0  0.24535790529863719  0.24535788020045843  0.7546421136997531  1.0000
  Br  Br2       1.0  0.7546420751745971  0.754642102955402  0.24535788943475337  1.0000
  Br  Br3       1.0  0.7546420976612408  0.24535787165351894  0.24535791448203173  1.0000
  Br  Br4       1.0  0.2453578923591367  0.7546420925878621  0.7546421326471451  1.0000
  Br  Br5       1.0  0.24535787628346076  0.7546421288142644  0.24535787798349754  1.0000
  Br  Br6       1.0  0.7546421170438299  0.245357888731557  0.7546421239924296  1.0000
