data_image0
_chemical_formula_structural       Se2PtCl6
_chemical_formula_sum              "Se2 Pt1 Cl6"
_cell_length_a       6.8054342465405995
_cell_length_b       6.8054342158299015
_cell_length_c       6.805433973876892
_cell_angle_alpha    60.00000016293956
_cell_angle_beta     59.99999931927155
_cell_angle_gamma    60.000000571470494

_space_group_name_H-M_alt    "P 1"
_space_group_IT_number       1

loop_
  _space_group_symop_operation_xyz
  'x, y, z'

loop_
  _atom_site_type_symbol
  _atom_site_label
  _atom_site_symmetry_multiplicity
  _atom_site_fract_x
  _atom_site_fract_y
  _atom_site_fract_z
  _atom_site_occupancy
  Se  Se1       1.0  0.24999986085688916  0.25000002898503165  0.24999982941235582  1.0000
  Se  Se2       1.0  0.7500000888146611  0.7500000545612672  0.7499997656068793  1.0000
  Pt  Pt1       1.0  2.1372377807470486e-08  0.9999999766044564  6.419638503443767e-08  1.0000
  Cl  Cl1       1.0  0.23908214473839676  0.23908219961051186  0.7609179217206896  1.0000
  Cl  Cl2       1.0  0.7609177951997577  0.7609178011515538  0.2390822999758934  1.0000
  Cl  Cl3       1.0  0.7609178009383484  0.23908215604995237  0.23908228993130054  1.0000
  Cl  Cl4       1.0  0.23908222366593115  0.7609177943217129  0.7609178235237508  1.0000
  Cl  Cl5       1.0  0.23908223343253285  0.7609178017583045  0.23908223270477202  1.0000
  Cl  Cl6       1.0  0.7609178316698353  0.23908219000547687  0.760917776620374  1.0000
