data_image0
_chemical_formula_structural       Se2PtI6
_chemical_formula_sum              "Se2 Pt1 I6"
_cell_length_a       7.416298178190168
_cell_length_b       7.416298183981112
_cell_length_c       7.4162981582369865
_cell_angle_alpha    60.00000022159944
_cell_angle_beta     60.000000041399
_cell_angle_gamma    60.00000008394577

_space_group_name_H-M_alt    "P 1"
_space_group_IT_number       1

loop_
  _space_group_symop_operation_xyz
  'x, y, z'

loop_
  _atom_site_type_symbol
  _atom_site_label
  _atom_site_symmetry_multiplicity
  _atom_site_fract_x
  _atom_site_fract_y
  _atom_site_fract_z
  _atom_site_occupancy
  Se  Se1       1.0  0.2499999385272221  0.2500000499082067  0.25000000466455863  1.0000
  Se  Se2       1.0  0.7500000608636428  0.7499999697194646  0.7500000406840558  1.0000
  Pt  Pt1       1.0  7.439507779911801e-09  0.9999999636686842  0.9999999605106399  1.0000
  I   I1        1.0  0.2530549665573515  0.2530549610299559  0.7469450325120829  1.0000
  I   I2        1.0  0.7469450542696094  0.746945050340598  0.25305491725385626  1.0000
  I   I3        1.0  0.7469450406277789  0.25305495381965804  0.2530549758046591  1.0000
  I   I4        1.0  0.2530549045360277  0.7469450790194008  0.7469450630841585  1.0000
  I   I5        1.0  0.25305495594221494  0.746945046955729  0.2530549627169335  1.0000
  I   I6        1.0  0.7469450745261517  0.2530549214778153  0.7469450454966372  1.0000
