data_image0
_chemical_formula_structural       Se2RhS6
_chemical_formula_sum              "Se2 Rh1 S6"
_cell_length_a       6.22890040641633
_cell_length_b       6.228900375366151
_cell_length_c       6.228900298291178
_cell_angle_alpha    59.99999920927263
_cell_angle_beta     59.999999753391414
_cell_angle_gamma    59.99999986544538

_space_group_name_H-M_alt    "P 1"
_space_group_IT_number       1

loop_
  _space_group_symop_operation_xyz
  'x, y, z'

loop_
  _atom_site_type_symbol
  _atom_site_label
  _atom_site_symmetry_multiplicity
  _atom_site_fract_x
  _atom_site_fract_y
  _atom_site_fract_z
  _atom_site_occupancy
  Se  Se1       1.0  0.2500000147508348  0.24999990246020007  0.2500000120267442  1.0000
  Se  Se2       1.0  0.749999981554746  0.7500000789980091  0.7499999554697161  1.0000
  Rh  Rh1       1.0  0.9999999805818979  1.3763607425772154e-08  2.8513964479206675e-08  1.0000
  S   S1        1.0  0.26082963657231745  0.2608296268747342  0.739170370988902  1.0000
  S   S2        1.0  0.7391703766228824  0.739170376212001  0.2608296414652784  1.0000
  S   S3        1.0  0.7391703727114207  0.2608296334370354  0.2608296281214233  1.0000
  S   S4        1.0  0.26082963863000036  0.7391703696497  0.73917035154583  1.0000
  S   S5        1.0  0.2608296459302644  0.7391703707409385  0.2608296150674639  1.0000
  S   S6        1.0  0.7391703585389995  0.2608296362782561  0.7391703789129971  1.0000
