data_image0
_chemical_formula_structural       Se2RhO6
_chemical_formula_sum              "Se2 Rh1 O6"
_cell_length_a       5.193998134448068
_cell_length_b       5.044000772280732
_cell_length_c       4.836470612209174
_cell_angle_alpha    62.711472144878755
_cell_angle_beta     59.89515912909425
_cell_angle_gamma    51.52071602335702

_space_group_name_H-M_alt    "P 1"
_space_group_IT_number       1

loop_
  _space_group_symop_operation_xyz
  'x, y, z'

loop_
  _atom_site_type_symbol
  _atom_site_label
  _atom_site_symmetry_multiplicity
  _atom_site_fract_x
  _atom_site_fract_y
  _atom_site_fract_z
  _atom_site_occupancy
  Se  Se1       1.0  0.13363073054820165  0.2880328489075953  0.2748474805796878  1.0000
  Se  Se2       1.0  0.6943499469540216  0.841948519320266  0.7273215147011912  1.0000
  Rh  Rh1       1.0  0.04285577910697614  0.9609218736085177  0.9872138134804388  1.0000
  O   O1        1.0  0.27816854672420044  0.22976181414197758  0.7276154804817966  1.0000
  O   O2        1.0  0.7633508855217438  0.7403504526001872  0.2551908608673889  1.0000
  O   O3        1.0  0.7950672545936119  0.2502124356668243  0.3007799897121762  1.0000
  O   O4        1.0  0.26655958943051145  0.7311120106319217  0.6851455180117744  1.0000
  O   O5        1.0  0.31753840404570377  0.6697579495566146  0.2260035700958744  1.0000
  O   O6        1.0  0.7083796206645275  0.28780078622471206  0.8162003307675809  1.0000
