data_image0
_chemical_formula_structural       Se2ReO6
_chemical_formula_sum              "Se2 Re1 O6"
_cell_length_a       5.55879643795656
_cell_length_b       5.558796889405919
_cell_length_c       5.558799606240597
_cell_angle_alpha    60.00000535019557
_cell_angle_beta     60.000003807429025
_cell_angle_gamma    59.99998668514589

_space_group_name_H-M_alt    "P 1"
_space_group_IT_number       1

loop_
  _space_group_symop_operation_xyz
  'x, y, z'

loop_
  _atom_site_type_symbol
  _atom_site_label
  _atom_site_symmetry_multiplicity
  _atom_site_fract_x
  _atom_site_fract_y
  _atom_site_fract_z
  _atom_site_occupancy
  Se  Se1       1.0  0.2499949181687898  0.2500160059206053  0.24998587617313678  1.0000
  Se  Se2       1.0  0.749972450332051  0.7500029766209051  0.7500165415093767  1.0000
  Re  Re1       1.0  2.559013949679017e-06  0.9999981558748308  0.9999999105992298  1.0000
  O   O1        1.0  0.2447570837141995  0.24474608452191007  0.7552509808274526  1.0000
  O   O2        1.0  0.755254139368958  0.7552442204405418  0.24474970033913598  1.0000
  O   O3        1.0  0.7552517449872197  0.24475186909480012  0.244749400687199  1.0000
  O   O4        1.0  0.24475848970058645  0.7552435011524  0.755253034220978  1.0000
  O   O5        1.0  0.24475943013868615  0.7552463749051891  0.24474456977262563  1.0000
  O   O6        1.0  0.7552491597755441  0.24475082624628064  0.7552500401850931  1.0000
