data_image0
_chemical_formula_structural       Se2SF6
_chemical_formula_sum              "Se2 S1 F6"
_cell_length_a       5.417960050014851
_cell_length_b       5.417960032107393
_cell_length_c       5.417960090900119
_cell_angle_alpha    59.99999914716109
_cell_angle_beta     60.000000111916854
_cell_angle_gamma    59.999999511800844

_space_group_name_H-M_alt    "P 1"
_space_group_IT_number       1

loop_
  _space_group_symop_operation_xyz
  'x, y, z'

loop_
  _atom_site_type_symbol
  _atom_site_label
  _atom_site_symmetry_multiplicity
  _atom_site_fract_x
  _atom_site_fract_y
  _atom_site_fract_z
  _atom_site_occupancy
  Se  Se1       1.0  0.24999988912878898  0.24999998083740005  0.25000009698379366  1.0000
  Se  Se2       1.0  0.7499999166128598  0.749999949293784  0.7500000503588433  1.0000
  S   S1        1.0  6.79856701098644e-08  0.999999936705223  1.0470591454402689e-07  1.0000
  F   F1        1.0  0.2356517642035731  0.23565177270982596  0.7643482532900482  1.0000
  F   F2        1.0  0.7643483159073122  0.7643482614056333  0.23565171964153822  1.0000
  F   F3        1.0  0.7643483420107917  0.23565167493334144  0.23565173677504983  1.0000
  F   F4        1.0  0.23565180234039804  0.7643482687610093  0.7643482012583983  1.0000
  F   F5        1.0  0.23565168356024316  0.7643483379986239  0.2356516369183755  1.0000
  F   F6        1.0  0.76434821933212  0.23565182496691664  0.7643481848546844  1.0000
