data_image0
_chemical_formula_structural       Se2SBr6
_chemical_formula_sum              "Se2 S1 Br6"
_cell_length_a       7.179257345360616
_cell_length_b       7.179257208434846
_cell_length_c       7.179256967547702
_cell_angle_alpha    60.00000063380756
_cell_angle_beta     60.00000090303333
_cell_angle_gamma    60.00000150623934

_space_group_name_H-M_alt    "P 1"
_space_group_IT_number       1

loop_
  _space_group_symop_operation_xyz
  'x, y, z'

loop_
  _atom_site_type_symbol
  _atom_site_label
  _atom_site_symmetry_multiplicity
  _atom_site_fract_x
  _atom_site_fract_y
  _atom_site_fract_z
  _atom_site_occupancy
  Se  Se1       1.0  0.25000006027005184  0.25000005834649075  0.24999988057458328  1.0000
  Se  Se2       1.0  0.7500000223802314  0.7499999362065715  0.7500000228253009  1.0000
  S   S1        1.0  0.9999999745418052  1.3647593720913479e-08  3.376333674467092e-08  1.0000
  Br  Br1       1.0  0.2539413396822509  0.2539413579543397  0.7460586643235575  1.0000
  Br  Br2       1.0  0.7460586506239087  0.746058643422518  0.2539413570531889  1.0000
  Br  Br3       1.0  0.7460586719567122  0.2539413455872854  0.2539413383609033  1.0000
  Br  Br4       1.0  0.25394133217543174  0.746058633612232  0.7460586662979942  1.0000
  Br  Br5       1.0  0.2539413010338618  0.7460586671234699  0.2539413616136007  1.0000
  Br  Br6       1.0  0.746058647259175  0.25394134448908284  0.74605867565186  1.0000
