data_image0
_chemical_formula_structural       Se2ScCl6
_chemical_formula_sum              "Se2 Sc1 Cl6"
_cell_length_a       6.789563938074533
_cell_length_b       6.789563172366808
_cell_length_c       6.789564003097583
_cell_angle_alpha    60.00000125798774
_cell_angle_beta     60.000004116626144
_cell_angle_gamma    59.999999598788214

_space_group_name_H-M_alt    "P 1"
_space_group_IT_number       1

loop_
  _space_group_symop_operation_xyz
  'x, y, z'

loop_
  _atom_site_type_symbol
  _atom_site_label
  _atom_site_symmetry_multiplicity
  _atom_site_fract_x
  _atom_site_fract_y
  _atom_site_fract_z
  _atom_site_occupancy
  Se  Se1       1.0  0.24999984050708834  0.25000017673077846  0.25000011559839896  1.0000
  Se  Se2       1.0  0.7499999967298884  0.7499999872292625  0.7500003467968973  1.0000
  Sc  Sc1       1.0  1.0702317161956437e-08  3.607727881191808e-09  0.9999999884264321  1.0000
  Cl  Cl1       1.0  0.25589439114158047  0.2558941888559376  0.7441057416348225  1.0000
  Cl  Cl2       1.0  0.7441056933718908  0.7441056720549354  0.2558944791155086  1.0000
  Cl  Cl3       1.0  0.7441057624207206  0.255894321593923  0.2558940104821878  1.0000
  Cl  Cl4       1.0  0.25589428156775057  0.7441055537478392  0.744105690143996  1.0000
  Cl  Cl5       1.0  0.25589422044862864  0.7441057941242177  0.2558940734588914  1.0000
  Cl  Cl6       1.0  0.7441057995029785  0.2558943012889562  0.7441055409328157  1.0000
