data_image0
_chemical_formula_structural       Se2SiO6
_chemical_formula_sum              "Se2 Si1 O6"
_cell_length_a       5.434846089434087
_cell_length_b       5.434845947808226
_cell_length_c       5.434846453828281
_cell_angle_alpha    59.999997955289736
_cell_angle_beta     59.999996532078754
_cell_angle_gamma    60.000000968829085

_space_group_name_H-M_alt    "P 1"
_space_group_IT_number       1

loop_
  _space_group_symop_operation_xyz
  'x, y, z'

loop_
  _atom_site_type_symbol
  _atom_site_label
  _atom_site_symmetry_multiplicity
  _atom_site_fract_x
  _atom_site_fract_y
  _atom_site_fract_z
  _atom_site_occupancy
  Se  Se1       1.0  0.2499999786735778  0.25000011776627534  0.2499998378634295  1.0000
  Se  Se2       1.0  0.750000374790689  0.7500001842860227  0.7499997485473623  1.0000
  Si  Si1       1.0  6.631632712396381e-09  0.999999986478974  0.999999986884891  1.0000
  O   O1        1.0  0.2305666070957745  0.23056658234681185  0.7694334630793853  1.0000
  O   O2        1.0  0.7694333431466469  0.7694333613982879  0.23056669177372444  1.0000
  O   O3        1.0  0.7694333558827312  0.2305665849719507  0.23056663049339676  1.0000
  O   O4        1.0  0.23056639715627855  0.769433338491602  0.7694335466232101  1.0000
  O   O5        1.0  0.23056653150182777  0.7694333318758636  0.2305667006181995  1.0000
  O   O6        1.0  0.7694334134198729  0.23056651947555717  0.7694334092532119  1.0000
