data_image0
_chemical_formula_structural       Se2SCl6
_chemical_formula_sum              "Se2 S1 Cl6"
_cell_length_a       6.5995911517298085
_cell_length_b       6.599591351224286
_cell_length_c       6.599591212000846
_cell_angle_alpha    60.00000299070546
_cell_angle_beta     60.000001474859445
_cell_angle_gamma    60.00000109767748

_space_group_name_H-M_alt    "P 1"
_space_group_IT_number       1

loop_
  _space_group_symop_operation_xyz
  'x, y, z'

loop_
  _atom_site_type_symbol
  _atom_site_label
  _atom_site_symmetry_multiplicity
  _atom_site_fract_x
  _atom_site_fract_y
  _atom_site_fract_z
  _atom_site_occupancy
  Se  Se1       1.0  0.2500001328585546  0.2500001853170876  0.24999992345466282  1.0000
  Se  Se2       1.0  0.7500000201653817  0.7499999695219796  0.7500003679424038  1.0000
  S   S1        1.0  0.9999999641063272  0.999999955461067  3.8701056265602243e-08  1.0000
  Cl  Cl1       1.0  0.2462378956313763  0.24623785582510516  0.7537620800239473  1.0000
  Cl  Cl2       1.0  0.7537620973280306  0.7537621598297863  0.24623780338717258  1.0000
  Cl  Cl3       1.0  0.7537621410363957  0.24623783507540298  0.24623777830892662  1.0000
  Cl  Cl4       1.0  0.24623783879305808  0.7537621044921438  0.7537621239516695  1.0000
  Cl  Cl5       1.0  0.24623781485157675  0.7537620965639947  0.24623776717847767  1.0000
  Cl  Cl6       1.0  0.7537620927295742  0.2462378392919739  0.7537621139674885  1.0000
