data_image0
_chemical_formula_structural       Se2ScBr6
_chemical_formula_sum              "Se2 Sc1 Br6"
_cell_length_a       7.280051339027822
_cell_length_b       7.280051284010877
_cell_length_c       7.280051481960853
_cell_angle_alpha    59.99999923844354
_cell_angle_beta     59.99999984496264
_cell_angle_gamma    59.99999885770299

_space_group_name_H-M_alt    "P 1"
_space_group_IT_number       1

loop_
  _space_group_symop_operation_xyz
  'x, y, z'

loop_
  _atom_site_type_symbol
  _atom_site_label
  _atom_site_symmetry_multiplicity
  _atom_site_fract_x
  _atom_site_fract_y
  _atom_site_fract_z
  _atom_site_occupancy
  Se  Se1       1.0  0.25000000507003484  0.24999997486339054  0.25000000971972464  1.0000
  Se  Se2       1.0  0.7499999806343782  0.7500000188006531  0.7499999622541464  1.0000
  Sc  Sc1       1.0  2.4720864360530683e-08  6.729319914188655e-09  2.9604257736229706e-08  1.0000
  Br  Br1       1.0  0.2537053760818779  0.2537053755403628  0.7462946196375017  1.0000
  Br  Br2       1.0  0.7462946296812656  0.7462946198060109  0.25370537580625585  1.0000
  Br  Br3       1.0  0.746294636110742  0.2537053654760363  0.2537053590962792  1.0000
  Br  Br4       1.0  0.2537053650864821  0.7462946197763574  0.7462946491718946  1.0000
  Br  Br5       1.0  0.25370537685724237  0.7462946199266005  0.2537053725330343  1.0000
  Br  Br6       1.0  0.7462946094876536  0.2537053956077338  0.7462946266467165  1.0000
