data_image0
_chemical_formula_structural       Se2SO6
_chemical_formula_sum              "Se2 S1 O6"
_cell_length_a       6.592286446726176
_cell_length_b       5.170845545361774
_cell_length_c       7.006288366776751
_cell_angle_alpha    72.82960424595053
_cell_angle_beta     58.65332386746032
_cell_angle_gamma    75.80123069263848

_space_group_name_H-M_alt    "P 1"
_space_group_IT_number       1

loop_
  _space_group_symop_operation_xyz
  'x, y, z'

loop_
  _atom_site_type_symbol
  _atom_site_label
  _atom_site_symmetry_multiplicity
  _atom_site_fract_x
  _atom_site_fract_y
  _atom_site_fract_z
  _atom_site_occupancy
  Se  Se1       1.0  0.11226738126226125  0.2801247694481693  0.12774492501637  1.0000
  Se  Se2       1.0  0.08244646008892564  0.7016489019580301  0.443809456301771  1.0000
  S   S1        1.0  0.8338211829163577  0.08016284845096848  0.9302745568534421  1.0000
  O   O1        1.0  0.9575986753804351  0.3472024039342816  0.9839071414061561  1.0000
  O   O2        1.0  0.9943674811624461  0.5610031455622768  0.25116042203134126  1.0000
  O   O3        1.0  0.9230247621819075  0.01739396380043154  0.384600901839727  1.0000
  O   O4        1.0  0.05816530923567121  0.9830002572820539  0.7452547790402702  1.0000
  O   O5        1.0  0.3628152444903852  0.7450818755486166  0.2709211488564889  1.0000
  O   O6        1.0  0.6754702909851915  0.2843851438233563  0.8623247271449829  1.0000
