data_image0
_chemical_formula_structural       Se2SI6
_chemical_formula_sum              "Se2 S1 I6"
_cell_length_a       7.487303911718463
_cell_length_b       7.487303820443524
_cell_length_c       7.487303897528746
_cell_angle_alpha    59.99999982707941
_cell_angle_beta     60.00000026332978
_cell_angle_gamma    59.99999973584466

_space_group_name_H-M_alt    "P 1"
_space_group_IT_number       1

loop_
  _space_group_symop_operation_xyz
  'x, y, z'

loop_
  _atom_site_type_symbol
  _atom_site_label
  _atom_site_symmetry_multiplicity
  _atom_site_fract_x
  _atom_site_fract_y
  _atom_site_fract_z
  _atom_site_occupancy
  Se  Se1       1.0  0.24999999701438222  0.25000002562477136  0.24999997484975003  1.0000
  Se  Se2       1.0  0.7500000418907249  0.7499999983577272  0.7499999717736106  1.0000
  S   S1        1.0  8.713045102866542e-10  6.215896454615563e-08  0.9999999431085749  1.0000
  I   I1        1.0  0.2697885541043961  0.2697885681137998  0.7302114493210331  1.0000
  I   I2        1.0  0.7302114057283289  0.7302113969812588  0.269788613028037  1.0000
  I   I3        1.0  0.7302114066894778  0.2697885955546327  0.26978859831650875  1.0000
  I   I4        1.0  0.2697885727242409  0.7302113940768592  0.730211443309442  1.0000
  I   I5        1.0  0.2697885839482369  0.7302113853720763  0.26978860130767984  1.0000
  I   I6        1.0  0.7302114344885207  0.26978857972298237  0.730211405027489  1.0000
