data_image0
_chemical_formula_structural       Se2ScI6
_chemical_formula_sum              "Se2 Sc1 I6"
_cell_length_a       7.758894510041384
_cell_length_b       7.758894357483511
_cell_length_c       7.758894401836111
_cell_angle_alpha    60.00000054875258
_cell_angle_beta     60.000001251465314
_cell_angle_gamma    60.000001849479986

_space_group_name_H-M_alt    "P 1"
_space_group_IT_number       1

loop_
  _space_group_symop_operation_xyz
  'x, y, z'

loop_
  _atom_site_type_symbol
  _atom_site_label
  _atom_site_symmetry_multiplicity
  _atom_site_fract_x
  _atom_site_fract_y
  _atom_site_fract_z
  _atom_site_occupancy
  Se  Se1       1.0  0.25000004044350216  0.2500000260701106  0.24999997724486664  1.0000
  Se  Se2       1.0  0.7499999285237585  0.7499999913925881  0.7500000857241217  1.0000
  Sc  Sc1       1.0  4.506724716315381e-08  2.9991583468531766e-08  0.9999999018949444  1.0000
  I   I1        1.0  0.25856657682076545  0.25856656106166065  0.7414334222084097  1.0000
  I   I2        1.0  0.7414333643525179  0.7414333790543233  0.2585666108449452  1.0000
  I   I3        1.0  0.7414334114301444  0.2585665958580404  0.25856656276597384  1.0000
  I   I4        1.0  0.25856657503474895  0.7414334405467107  0.7414334123856275  1.0000
  I   I5        1.0  0.2585665619839435  0.7414334458420363  0.25856656359510544  1.0000
  I   I6        1.0  0.7414334970894906  0.2585665290010465  0.7414334562979531  1.0000
