data_image0
_chemical_formula_structural       Se2ScF6
_chemical_formula_sum              "Se2 Sc1 F6"
_cell_length_a       5.118067744252501
_cell_length_b       5.118067689439282
_cell_length_c       5.118067749585646
_cell_angle_alpha    60.00000048954139
_cell_angle_beta     60.00000009899536
_cell_angle_gamma    59.999999591084936

_space_group_name_H-M_alt    "P 1"
_space_group_IT_number       1

loop_
  _space_group_symop_operation_xyz
  'x, y, z'

loop_
  _atom_site_type_symbol
  _atom_site_label
  _atom_site_symmetry_multiplicity
  _atom_site_fract_x
  _atom_site_fract_y
  _atom_site_fract_z
  _atom_site_occupancy
  Se  Se1       1.0  0.24999997696505483  0.24999996153088946  0.2500000590812278  1.0000
  Se  Se2       1.0  0.7499999517906583  0.7500000114207638  0.7500000349967066  1.0000
  Sc  Sc1       1.0  2.2447883682541405e-08  0.9999999664982383  0.9999999703574161  1.0000
  F   F1        1.0  0.2606202035395089  0.26062016090277473  0.7393798257141881  1.0000
  F   F2        1.0  0.7393798104015616  0.739379840764673  0.2606201547511617  1.0000
  F   F3        1.0  0.7393798217772326  0.2606202062168306  0.26062014250361676  1.0000
  F   F4        1.0  0.26062016996618703  0.7393798552751907  0.7393798152405474  1.0000
  F   F5        1.0  0.2606201959218454  0.739379836391988  0.2606201664850126  1.0000
  F   F6        1.0  0.7393798482833804  0.2606201557035278  0.7393798309882987  1.0000
