data_image0
_chemical_formula_structural       Se2SnO6
_chemical_formula_sum              "Se2 Sn1 O6"
_cell_length_a       5.500772921393764
_cell_length_b       5.500779506127758
_cell_length_c       5.500776459590055
_cell_angle_alpha    60.000017567588394
_cell_angle_beta     59.999982415175346
_cell_angle_gamma    60.00002829755729

_space_group_name_H-M_alt    "P 1"
_space_group_IT_number       1

loop_
  _space_group_symop_operation_xyz
  'x, y, z'

loop_
  _atom_site_type_symbol
  _atom_site_label
  _atom_site_symmetry_multiplicity
  _atom_site_fract_x
  _atom_site_fract_y
  _atom_site_fract_z
  _atom_site_occupancy
  Se  Se1       1.0  0.24999483508627007  0.2500194107041206  0.24999577683239005  1.0000
  Se  Se2       1.0  0.7500282511228534  0.7499516365611328  0.7500154776235025  1.0000
  Sn  Sn1       1.0  1.8303698886626154e-06  0.9999982432974974  5.449024235552808e-07  1.0000
  O   O1        1.0  0.26278244825369085  0.26282183608372056  0.7371967293579479  1.0000
  O   O2        1.0  0.7372047261920132  0.7371917171481135  0.26279951692115205  1.0000
  O   O3        1.0  0.7371960873747262  0.2628193308037499  0.2627837469465907  1.0000
  O   O4        1.0  0.26279465199130886  0.7371919914829058  0.7372051042039779  1.0000
  O   O5        1.0  0.2627981070980742  0.7371907486379778  0.2628051547152416  1.0000
  O   O6        1.0  0.7371990726900309  0.2628150942506203  0.7371977665966207  1.0000
