data_image0
_chemical_formula_structural       Se2TiO6
_chemical_formula_sum              "Se2 Ti1 O6"
_cell_length_a       5.258849264966046
_cell_length_b       5.2588492687060455
_cell_length_c       5.2588492944574625
_cell_angle_alpha    60.00000041720853
_cell_angle_beta     60.00000070814856
_cell_angle_gamma    60.000000181645504

_space_group_name_H-M_alt    "P 1"
_space_group_IT_number       1

loop_
  _space_group_symop_operation_xyz
  'x, y, z'

loop_
  _atom_site_type_symbol
  _atom_site_label
  _atom_site_symmetry_multiplicity
  _atom_site_fract_x
  _atom_site_fract_y
  _atom_site_fract_z
  _atom_site_occupancy
  Se  Se1       1.0  0.24999958365195332  0.25000005577340934  0.2500001607783754  1.0000
  Se  Se2       1.0  0.749999728058972  0.7499999367569686  0.7500000634278451  1.0000
  Ti  Ti1       1.0  3.348762847106757e-09  1.6302452412351465e-08  0.9999999464385888  1.0000
  O   O1        1.0  0.25109535478738454  0.25109526311553954  0.7489047557472557  1.0000
  O   O2        1.0  0.7489048559317126  0.7489046409158095  0.2510953180129939  1.0000
  O   O3        1.0  0.7489047763728393  0.2510953219891928  0.25109521733329615  1.0000
  O   O4        1.0  0.25109541555883746  0.7489046845147151  0.7489047841594777  1.0000
  O   O5        1.0  0.25109534967949754  0.7489047830708574  0.2510952084638369  1.0000
  O   O6        1.0  0.7489049314550351  0.25109530494531285  0.7489045669561846  1.0000
