data_image0
_chemical_formula_structural       Se2TiBr6
_chemical_formula_sum              "Se2 Ti1 Br6"
_cell_length_a       7.304915761330386
_cell_length_b       7.304915902492153
_cell_length_c       7.3049153443482595
_cell_angle_alpha    59.999999178918735
_cell_angle_beta     60.000000434765916
_cell_angle_gamma    60.00000091762745

_space_group_name_H-M_alt    "P 1"
_space_group_IT_number       1

loop_
  _space_group_symop_operation_xyz
  'x, y, z'

loop_
  _atom_site_type_symbol
  _atom_site_label
  _atom_site_symmetry_multiplicity
  _atom_site_fract_x
  _atom_site_fract_y
  _atom_site_fract_z
  _atom_site_occupancy
  Se  Se1       1.0  0.24999996983472933  0.25000002351078554  0.2500000117528944  1.0000
  Se  Se2       1.0  0.749999953975312  0.7499998659867151  0.7499999660813493  1.0000
  Ti  Ti1       1.0  0.9999999416723375  4.6944899906969064e-08  6.866267857366629e-08  1.0000
  Br  Br1       1.0  0.24058055837027914  0.24058051079944495  0.7594194738850146  1.0000
  Br  Br2       1.0  0.7594194910971358  0.7594194759410661  0.2405805033832753  1.0000
  Br  Br3       1.0  0.7594195074005626  0.24058052808126015  0.24058053926336917  1.0000
  Br  Br4       1.0  0.24058055041696777  0.759419490514719  0.7594194589703658  1.0000
  Br  Br5       1.0  0.2405805271094296  0.7594195073603958  0.24058053918320213  1.0000
  Br  Br6       1.0  0.759419490981949  0.2405805497974679  0.7594194418364293  1.0000
