data_image0
_chemical_formula_structural       Se2TaS6
_chemical_formula_sum              "Se2 Ta1 S6"
_cell_length_a       6.343904803394373
_cell_length_b       6.34390478477794
_cell_length_c       6.3439048190942415
_cell_angle_alpha    59.99999974079994
_cell_angle_beta     59.99999900165012
_cell_angle_gamma    59.99999898195982

_space_group_name_H-M_alt    "P 1"
_space_group_IT_number       1

loop_
  _space_group_symop_operation_xyz
  'x, y, z'

loop_
  _atom_site_type_symbol
  _atom_site_label
  _atom_site_symmetry_multiplicity
  _atom_site_fract_x
  _atom_site_fract_y
  _atom_site_fract_z
  _atom_site_occupancy
  Se  Se1       1.0  0.24999996427568782  0.2499998727836031  0.25000003079271643  1.0000
  Se  Se2       1.0  0.7500000007785326  0.7500001299558898  0.749999779447241  1.0000
  Ta  Ta1       1.0  0.9999999662431736  5.2125801097250684e-08  2.549446951856496e-08  1.0000
  S   S1        1.0  0.26676067209466314  0.26676053132437766  0.733239431102732  1.0000
  S   S2        1.0  0.7332393938419645  0.7332394308728261  0.26676066738304016  1.0000
  S   S3        1.0  0.733239494761902  0.2667605406813325  0.2667606660317509  1.0000
  S   S4        1.0  0.26676054151883904  0.7332394176547007  0.7332393546335776  1.0000
  S   S5        1.0  0.26676057523619906  0.7332394222553926  0.26676062332664163  1.0000
  S   S6        1.0  0.7332393894867827  0.2667605978593679  0.7332394258729463  1.0000
