data_image0
_chemical_formula_structural       Se2TiI6
_chemical_formula_sum              "Se2 Ti1 I6"
_cell_length_a       7.722167216839602
_cell_length_b       7.722167379802113
_cell_length_c       7.722167241009485
_cell_angle_alpha    59.99999908085604
_cell_angle_beta     60.000000301021
_cell_angle_gamma    59.999999838628575

_space_group_name_H-M_alt    "P 1"
_space_group_IT_number       1

loop_
  _space_group_symop_operation_xyz
  'x, y, z'

loop_
  _atom_site_type_symbol
  _atom_site_label
  _atom_site_symmetry_multiplicity
  _atom_site_fract_x
  _atom_site_fract_y
  _atom_site_fract_z
  _atom_site_occupancy
  Se  Se1       1.0  0.2500000221853932  0.25000002965911083  0.250000036665473  1.0000
  Se  Se2       1.0  0.7499999454234741  0.7499999589243656  0.7500000763075468  1.0000
  Ti  Ti1       1.0  0.9999999754557227  6.34404778420661e-09  0.9999999857905961  1.0000
  I   I1        1.0  0.24276512789567156  0.24276514505002225  0.7572348561816049  1.0000
  I   I2        1.0  0.7572348072544204  0.7572348467054808  0.2427651225128655  1.0000
  I   I3        1.0  0.7572347953399411  0.2427652460149081  0.2427651380428122  1.0000
  I   I4        1.0  0.24276521252036426  0.757234801251009  0.7572347739513976  1.0000
  I   I5        1.0  0.24276527089701194  0.7572348172096405  0.24276515123763456  1.0000
  I   I6        1.0  0.7572348441433657  0.24276515075568278  0.757234856889563  1.0000
