data_image0
_chemical_formula_structural       Se2TiS6
_chemical_formula_sum              "Se2 Ti1 S6"
_cell_length_a       6.324470442293152
_cell_length_b       6.32447037085587
_cell_length_c       6.324470537158511
_cell_angle_alpha    59.999999184549694
_cell_angle_beta     59.99999882156766
_cell_angle_gamma    59.99999838874046

_space_group_name_H-M_alt    "P 1"
_space_group_IT_number       1

loop_
  _space_group_symop_operation_xyz
  'x, y, z'

loop_
  _atom_site_type_symbol
  _atom_site_label
  _atom_site_symmetry_multiplicity
  _atom_site_fract_x
  _atom_site_fract_y
  _atom_site_fract_z
  _atom_site_occupancy
  Se  Se1       1.0  0.2500001699712136  0.2500000626637164  0.24999970879331115  1.0000
  Se  Se2       1.0  0.7499999764955995  0.7500001395782141  0.7500002553102384  1.0000
  Ti  Ti1       1.0  0.9999999703637348  0.9999999903174117  5.428986703209003e-09  1.0000
  S   S1        1.0  0.2624644002911914  0.26246432868670266  0.737535693217852  1.0000
  S   S2        1.0  0.7375356234665387  0.7375356063157849  0.26246434727295903  1.0000
  S   S3        1.0  0.7375355951060601  0.26246437385957044  0.262464397049147  1.0000
  S   S4        1.0  0.26246427967608144  0.7375355863176486  0.7375356405145321  1.0000
  S   S5        1.0  0.26246442886376514  0.7375355867365253  0.262464374795417  1.0000
  S   S6        1.0  0.7375355498035632  0.26246431921819663  0.7375355841774761  1.0000
