data_image0
_chemical_formula_structural       Se2TiCl6
_chemical_formula_sum              "Se2 Ti1 Cl6"
_cell_length_a       6.827652337202967
_cell_length_b       6.827651425320856
_cell_length_c       6.827651766625552
_cell_angle_alpha    59.999996957178396
_cell_angle_beta     60.00000079724348
_cell_angle_gamma    60.000002330611984

_space_group_name_H-M_alt    "P 1"
_space_group_IT_number       1

loop_
  _space_group_symop_operation_xyz
  'x, y, z'

loop_
  _atom_site_type_symbol
  _atom_site_label
  _atom_site_symmetry_multiplicity
  _atom_site_fract_x
  _atom_site_fract_y
  _atom_site_fract_z
  _atom_site_occupancy
  Se  Se1       1.0  0.24999974795311383  0.2500001759483589  0.2500001073834615  1.0000
  Se  Se2       1.0  0.7500002184870658  0.7499998515821056  0.7499998771122557  1.0000
  Ti  Ti1       1.0  1.8125586608985524e-08  0.99999996591778  0.999999909847946  1.0000
  Cl  Cl1       1.0  0.2423031903636563  0.24230319828874156  0.7576968424961212  1.0000
  Cl  Cl2       1.0  0.7576968223547713  0.7576967969533044  0.24230320384240353  1.0000
  Cl  Cl3       1.0  0.7576968659426006  0.242303168696925  0.2423031212927874  1.0000
  Cl  Cl4       1.0  0.24230311872575325  0.7576968193699153  0.75769687089139  1.0000
  Cl  Cl5       1.0  0.24230318282836927  0.7576968200677916  0.24230318042542567  1.0000
  Cl  Cl6       1.0  0.7576968447006058  0.2423031966998693  0.7576968755730331  1.0000
