data_image0
_chemical_formula_structural       Se2TiF6
_chemical_formula_sum              "Se2 Ti1 F6"
_cell_length_a       5.15914099388572
_cell_length_b       5.159140979316849
_cell_length_c       5.159141024210639
_cell_angle_alpha    60.00000042388677
_cell_angle_beta     60.000000150994325
_cell_angle_gamma    60.00000048168424

_space_group_name_H-M_alt    "P 1"
_space_group_IT_number       1

loop_
  _space_group_symop_operation_xyz
  'x, y, z'

loop_
  _atom_site_type_symbol
  _atom_site_label
  _atom_site_symmetry_multiplicity
  _atom_site_fract_x
  _atom_site_fract_y
  _atom_site_fract_z
  _atom_site_occupancy
  Se  Se1       1.0  0.25000000668387934  0.2500000188823382  0.25000000237436254  1.0000
  Se  Se2       1.0  0.7499999937600295  0.7499999878029929  0.7500000081715302  1.0000
  Ti  Ti1       1.0  0.9999999900077912  0.9999999762606824  2.074237741905409e-08  1.0000
  F   F1        1.0  0.25566552478563564  0.2556655148915529  0.7443344755729949  1.0000
  F   F2        1.0  0.7443344913254235  0.7443344917937781  0.25566549418810103  1.0000
  F   F3        1.0  0.7443344772229283  0.25566551722662  0.2556655135307735  1.0000
  F   F4        1.0  0.25566552349251537  0.7443344752151204  0.7443344749265397  1.0000
  F   F5        1.0  0.2556655189366418  0.744334483779837  0.2556655204416543  1.0000
  F   F6        1.0  0.7443344797888785  0.25566553477515286  0.7443344772753747  1.0000
