data_image0
_chemical_formula_structural       Se2VBr6
_chemical_formula_sum              "Se2 V1 Br6"
_cell_length_a       7.2550140356006585
_cell_length_b       7.25501354625989
_cell_length_c       7.255014063319182
_cell_angle_alpha    59.99999886578725
_cell_angle_beta     60.00000001155499
_cell_angle_gamma    59.99999925071558

_space_group_name_H-M_alt    "P 1"
_space_group_IT_number       1

loop_
  _space_group_symop_operation_xyz
  'x, y, z'

loop_
  _atom_site_type_symbol
  _atom_site_label
  _atom_site_symmetry_multiplicity
  _atom_site_fract_x
  _atom_site_fract_y
  _atom_site_fract_z
  _atom_site_occupancy
  Se  Se1       1.0  0.24999993942979828  0.24999998864379666  0.25000001349601814  1.0000
  Se  Se2       1.0  0.7499999188160515  0.7500000081347891  0.749999989798383  1.0000
  V   V1        1.0  3.3037198024172954e-08  2.025763175275847e-08  5.054798174295269e-09  1.0000
  Br  Br1       1.0  0.23752264561254802  0.2375226247524956  0.7624773295879623  1.0000
  Br  Br2       1.0  0.7624773978204146  0.7624773703379566  0.2375226164158763  1.0000
  Br  Br3       1.0  0.762477438842504  0.23752263016877706  0.23752260225282124  1.0000
  Br  Br4       1.0  0.2375226109568173  0.762477364921676  0.762477392945407  1.0000
  Br  Br5       1.0  0.23752262330105017  0.7624774068710387  0.2375226025465614  1.0000
  Br  Br6       1.0  0.7624773952291896  0.23752258653127842  0.7624774408324881  1.0000
