data_image0
_chemical_formula_structural       Se2VF6
_chemical_formula_sum              "Se2 V1 F6"
_cell_length_a       5.222400273139906
_cell_length_b       5.222400285094095
_cell_length_c       5.222400175284355
_cell_angle_alpha    60.00000015947672
_cell_angle_beta     60.0000004998634
_cell_angle_gamma    60.00000046797074

_space_group_name_H-M_alt    "P 1"
_space_group_IT_number       1

loop_
  _space_group_symop_operation_xyz
  'x, y, z'

loop_
  _atom_site_type_symbol
  _atom_site_label
  _atom_site_symmetry_multiplicity
  _atom_site_fract_x
  _atom_site_fract_y
  _atom_site_fract_z
  _atom_site_occupancy
  Se  Se1       1.0  0.2500000467066769  0.2499999799127603  0.24999998781706148  1.0000
  Se  Se2       1.0  0.7499999616262931  0.7500000241646223  0.7500000430369645  1.0000
  V   V1        1.0  6.364914161314959e-09  1.4071057064900873e-08  0.9999999821227008  1.0000
  F   F1        1.0  0.2523154518230679  0.25231541175081756  0.7476845716946681  1.0000
  F   F2        1.0  0.7476845531377668  0.7476845759103321  0.2523154077790344  1.0000
  F   F3        1.0  0.7476845270941601  0.252315468582513  0.2523154355355818  1.0000
  F   F4        1.0  0.252315443896138  0.7476845612918076  0.7476845551354305  1.0000
  F   F5        1.0  0.2523154679109861  0.747684524209664  0.25231544150027785  1.0000
  F   F6        1.0  0.7476845391497907  0.25231543061901923  0.7476845782324557  1.0000
