data_image0
_chemical_formula_structural       Se2VCl6
_chemical_formula_sum              "Se2 V1 Cl6"
_cell_length_a       6.778968161182394
_cell_length_b       6.77896835926602
_cell_length_c       6.778967952433572
_cell_angle_alpha    60.000001011827884
_cell_angle_beta     59.9999991953162
_cell_angle_gamma    60.000000733225086

_space_group_name_H-M_alt    "P 1"
_space_group_IT_number       1

loop_
  _space_group_symop_operation_xyz
  'x, y, z'

loop_
  _atom_site_type_symbol
  _atom_site_label
  _atom_site_symmetry_multiplicity
  _atom_site_fract_x
  _atom_site_fract_y
  _atom_site_fract_z
  _atom_site_occupancy
  Se  Se1       1.0  0.2500000334789171  0.25000008546260144  0.2500000685667965  1.0000
  Se  Se2       1.0  0.7500000951585258  0.7500000269390341  0.75000002950888  1.0000
  V   V1        1.0  0.999999898279733  3.4326982124030017e-08  0.9999999333863892  1.0000
  Cl  Cl1       1.0  0.237460565126156  0.2374606213224373  0.7625393482922276  1.0000
  Cl  Cl2       1.0  0.7625394890801964  0.762539463978951  0.23746049371775232  1.0000
  Cl  Cl3       1.0  0.7625393967368587  0.2374605837448609  0.23746060140159359  1.0000
  Cl  Cl4       1.0  0.2374605091062033  0.7625394509693965  0.7625394049902349  1.0000
  Cl  Cl5       1.0  0.237460610475811  0.7625393393248002  0.23746059356212088  1.0000
  Cl  Cl6       1.0  0.76253938081572  0.2374603828332564  0.7625395337593284  1.0000
