data_image0
_chemical_formula_structural       Se2VO6
_chemical_formula_sum              "Se2 V1 O6"
_cell_length_a       5.356010136548973
_cell_length_b       5.3560098069764335
_cell_length_c       5.356010067271996
_cell_angle_alpha    60.00000065645356
_cell_angle_beta     60.000001312286514
_cell_angle_gamma    59.9999999181442

_space_group_name_H-M_alt    "P 1"
_space_group_IT_number       1

loop_
  _space_group_symop_operation_xyz
  'x, y, z'

loop_
  _atom_site_type_symbol
  _atom_site_label
  _atom_site_symmetry_multiplicity
  _atom_site_fract_x
  _atom_site_fract_y
  _atom_site_fract_z
  _atom_site_occupancy
  Se  Se1       1.0  0.2500001224286251  0.24999988347224955  0.2500000004523455  1.0000
  Se  Se2       1.0  0.7499999914796497  0.749999949971046  0.7499998826498401  1.0000
  V   V1        1.0  0.9999999854318311  0.9999999725599108  6.067636751487875e-09  1.0000
  O   O1        1.0  0.2412567850980259  0.24125677801368214  0.7587432583012527  1.0000
  O   O2        1.0  0.7587431631722327  0.7587433001037427  0.2412568149314397  1.0000
  O   O3        1.0  0.7587432124599288  0.2412567768058493  0.2412568513041056  1.0000
  O   O4        1.0  0.2412567443031396  0.758743308171596  0.7587431246332214  1.0000
  O   O5        1.0  0.24125677684091026  0.7587431708520194  0.24125681027207  1.0000
  O   O6        1.0  0.7587432092565891  0.24125684552520457  0.7587432151711349  1.0000
