data_image0
_chemical_formula_structural       Se2VS6
_chemical_formula_sum              "Se2 V1 S6"
_cell_length_a       6.289616805147008
_cell_length_b       6.289616658084632
_cell_length_c       6.289616777981341
_cell_angle_alpha    60.000000555334445
_cell_angle_beta     60.00000047741815
_cell_angle_gamma    59.99999890301914

_space_group_name_H-M_alt    "P 1"
_space_group_IT_number       1

loop_
  _space_group_symop_operation_xyz
  'x, y, z'

loop_
  _atom_site_type_symbol
  _atom_site_label
  _atom_site_symmetry_multiplicity
  _atom_site_fract_x
  _atom_site_fract_y
  _atom_site_fract_z
  _atom_site_occupancy
  Se  Se1       1.0  0.25000000916617193  0.2499999714125561  0.2500002257933834  1.0000
  Se  Se2       1.0  0.749999993873393  0.7500001693272544  0.7499995856660553  1.0000
  V   V1        1.0  5.136981192904649e-08  0.9999998734288233  0.9999999135867664  1.0000
  S   S1        1.0  0.2526125145026168  0.25261252918864674  0.7473874670687677  1.0000
  S   S2        1.0  0.7473874834207157  0.7473874947162362  0.2526126136460301  1.0000
  S   S3        1.0  0.7473874413893551  0.25261240335318585  0.25261264739555805  1.0000
  S   S4        1.0  0.2526124546885572  0.7473876341824401  0.7473874790165002  1.0000
  S   S5        1.0  0.25261249000671093  0.7473874626400545  0.25261254574947134  1.0000
  S   S6        1.0  0.7473875617522922  0.25261246584963426  0.7473875255465695  1.0000
