data_image0
_chemical_formula_structural       Se2VI6
_chemical_formula_sum              "Se2 V1 I6"
_cell_length_a       7.508464598910612
_cell_length_b       7.508464577692789
_cell_length_c       7.5084646437959455
_cell_angle_alpha    60.00000051818595
_cell_angle_beta     59.99999962811432
_cell_angle_gamma    60.00000041928703

_space_group_name_H-M_alt    "P 1"
_space_group_IT_number       1

loop_
  _space_group_symop_operation_xyz
  'x, y, z'

loop_
  _atom_site_type_symbol
  _atom_site_label
  _atom_site_symmetry_multiplicity
  _atom_site_fract_x
  _atom_site_fract_y
  _atom_site_fract_z
  _atom_site_occupancy
  Se  Se1       1.0  0.24999999515203664  0.25000005059063724  0.24999997807616312  1.0000
  Se  Se2       1.0  0.7500000380421342  0.7499999478778848  0.7499999978960173  1.0000
  V   V1        1.0  0.9999999952771124  3.262304403932483e-08  0.9999999607451481  1.0000
  I   I1        1.0  0.24618797394780387  0.24618798099843012  0.7538120098850011  1.0000
  I   I2        1.0  0.7538120057009512  0.7538120027897218  0.2461880015319027  1.0000
  I   I3        1.0  0.7538119859691842  0.2461879963615132  0.24618801659042872  1.0000
  I   I4        1.0  0.24618800108903463  0.7538120021070088  0.7538120037590111  1.0000
  I   I5        1.0  0.2461880015781375  0.7538119710167355  0.2461880385499023  1.0000
  I   I6        1.0  0.7538120053017582  0.24618800950911252  0.7538119981738289  1.0000
