data_image0
_chemical_formula_structural       Se2WO6
_chemical_formula_sum              "Se2 W1 O6"
_cell_length_a       5.421656673919994
_cell_length_b       5.421656514880684
_cell_length_c       5.4216567604858446
_cell_angle_alpha    59.9999987545904
_cell_angle_beta     59.999998951071944
_cell_angle_gamma    59.9999993665664

_space_group_name_H-M_alt    "P 1"
_space_group_IT_number       1

loop_
  _space_group_symop_operation_xyz
  'x, y, z'

loop_
  _atom_site_type_symbol
  _atom_site_label
  _atom_site_symmetry_multiplicity
  _atom_site_fract_x
  _atom_site_fract_y
  _atom_site_fract_z
  _atom_site_occupancy
  Se  Se1       1.0  0.2499999694609693  0.24999986277028355  0.24999998557782363  1.0000
  Se  Se2       1.0  0.7500000615690217  0.7500000807699102  0.74999986631217  1.0000
  W   W1        1.0  0.999999970463454  0.9999999480433103  4.6279981837453275e-08  1.0000
  O   O1        1.0  0.24863841156011074  0.24863847792755384  0.7513616026194831  1.0000
  O   O2        1.0  0.7513615501315994  0.7513615650080465  0.24863842606523118  1.0000
  O   O3        1.0  0.7513615410707001  0.24863843749110504  0.24863850737356225  1.0000
  O   O4        1.0  0.2486384936577679  0.751361609962469  0.7513615120450605  1.0000
  O   O5        1.0  0.2486384374943683  0.7513615691278681  0.2486384907502153  1.0000
  O   O6        1.0  0.7513615435168371  0.24863842862800245  0.7513615766869812  1.0000
