data_image0
_chemical_formula_structural       Se2WS6
_chemical_formula_sum              "Se2 W1 S6"
_cell_length_a       6.3052475501223375
_cell_length_b       6.305247550938402
_cell_length_c       6.305247638140206
_cell_angle_alpha    59.9999993637961
_cell_angle_beta     60.00000067337114
_cell_angle_gamma    60.00000032544354

_space_group_name_H-M_alt    "P 1"
_space_group_IT_number       1

loop_
  _space_group_symop_operation_xyz
  'x, y, z'

loop_
  _atom_site_type_symbol
  _atom_site_label
  _atom_site_symmetry_multiplicity
  _atom_site_fract_x
  _atom_site_fract_y
  _atom_site_fract_z
  _atom_site_occupancy
  Se  Se1       1.0  0.24999992264138116  0.25000005680284226  0.25000001857635573  1.0000
  Se  Se2       1.0  0.7500000176551779  0.7499999431452059  0.7500000080176606  1.0000
  W   W1        1.0  2.2290197709038286e-08  1.5539372758845055e-08  0.9999999588814875  1.0000
  S   S1        1.0  0.25759048937828366  0.257590485501865  0.7424095083728957  1.0000
  S   S2        1.0  0.7424095279262726  0.7424095416400858  0.2575904518463469  1.0000
  S   S3        1.0  0.74240950156648  0.25759049771081505  0.2575904856374674  1.0000
  S   S4        1.0  0.2575904949650044  0.7424094983523902  0.7424095417431773  1.0000
  S   S5        1.0  0.25759047924214745  0.7424095014141826  0.2575904964778765  1.0000
  S   S6        1.0  0.7424095335682122  0.2575904732823856  0.7424095334466492  1.0000
