data_image0
_chemical_formula_structural       Se2ZnBr6
_chemical_formula_sum              "Se2 Zn1 Br6"
_cell_length_a       7.057427818269388
_cell_length_b       7.057427699652886
_cell_length_c       7.057427838110988
_cell_angle_alpha    59.99999969790075
_cell_angle_beta     60.000000143182724
_cell_angle_gamma    59.99999925801759

_space_group_name_H-M_alt    "P 1"
_space_group_IT_number       1

loop_
  _space_group_symop_operation_xyz
  'x, y, z'

loop_
  _atom_site_type_symbol
  _atom_site_label
  _atom_site_symmetry_multiplicity
  _atom_site_fract_x
  _atom_site_fract_y
  _atom_site_fract_z
  _atom_site_occupancy
  Se  Se1       1.0  0.2499999945750851  0.24999998378855007  0.2500000035519689  1.0000
  Se  Se2       1.0  0.7500000153564998  0.7500000086337976  0.7499999633723172  1.0000
  Zn  Zn1       1.0  0.9999999895053892  6.941593773878426e-09  3.436628563379898e-08  1.0000
  Br  Br1       1.0  0.25097105188552604  0.2509710517799427  0.7490289679611524  1.0000
  Br  Br2       1.0  0.7490289617975743  0.7490289441132021  0.25097107470099994  1.0000
  Br  Br3       1.0  0.7490289555926319  0.25097105432747857  0.2509710507351695  1.0000
  Br  Br4       1.0  0.2509710493312559  0.7490289433010644  0.7490289373440701  1.0000
  Br  Br5       1.0  0.25097103911440277  0.7490289556702128  0.25097104455013236  1.0000
  Br  Br6       1.0  0.7490289382756662  0.2509710558415175  0.7490289262663269  1.0000
