data_image0
_chemical_formula_structural       Se2ZnF6
_chemical_formula_sum              "Se2 Zn1 F6"
_cell_length_a       5.130421047215159
_cell_length_b       5.130421113509472
_cell_length_c       5.13042106671938
_cell_angle_alpha    59.999998816906206
_cell_angle_beta     59.99999841114973
_cell_angle_gamma    59.99999894029634

_space_group_name_H-M_alt    "P 1"
_space_group_IT_number       1

loop_
  _space_group_symop_operation_xyz
  'x, y, z'

loop_
  _atom_site_type_symbol
  _atom_site_label
  _atom_site_symmetry_multiplicity
  _atom_site_fract_x
  _atom_site_fract_y
  _atom_site_fract_z
  _atom_site_occupancy
  Se  Se1       1.0  0.2499999146722212  0.25000003313646774  0.24999998673547516  1.0000
  Se  Se2       1.0  0.7500000498847799  0.7500000325672136  0.7499999342530318  1.0000
  Zn  Zn1       1.0  4.183090985639131e-08  9.548883759499887e-09  0.9999999665134716  1.0000
  F   F1        1.0  0.26016493544820507  0.2601649384509906  0.7398350851819525  1.0000
  F   F2        1.0  0.7398350613245664  0.7398350508616185  0.26016495340293566  1.0000
  F   F3        1.0  0.7398350359465233  0.2601649436684423  0.260164963972095  1.0000
  F   F4        1.0  0.2601649307949158  0.7398350074486315  0.7398351048279124  1.0000
  F   F5        1.0  0.26016492080386366  0.7398350653893165  0.26016499179087044  1.0000
  F   F6        1.0  0.7398351183459273  0.26016490482552457  0.7398350390527072  1.0000
