data_image0
_chemical_formula_structural       Se2ZnI6
_chemical_formula_sum              "Se2 Zn1 I6"
_cell_length_a       7.437546063028403
_cell_length_b       7.437546082423112
_cell_length_c       7.437546057545275
_cell_angle_alpha    59.999999379428246
_cell_angle_beta     59.999999804058135
_cell_angle_gamma    60.00000105601101

_space_group_name_H-M_alt    "P 1"
_space_group_IT_number       1

loop_
  _space_group_symop_operation_xyz
  'x, y, z'

loop_
  _atom_site_type_symbol
  _atom_site_label
  _atom_site_symmetry_multiplicity
  _atom_site_fract_x
  _atom_site_fract_y
  _atom_site_fract_z
  _atom_site_occupancy
  Se  Se1       1.0  0.2500000542128816  0.24999997629204965  0.2499999938709599  1.0000
  Se  Se2       1.0  0.7499999763970358  0.7499999799240197  0.7500000223191592  1.0000
  Zn  Zn1       1.0  0.9999999645905224  0.9999999571856539  4.852361852405416e-08  1.0000
  I   I1        1.0  0.2578541032231433  0.25785415731431416  0.7421458614843542  1.0000
  I   I2        1.0  0.7421459090685024  0.7421458911172684  0.2578540841439065  1.0000
  I   I3        1.0  0.7421458758702055  0.2578541418628837  0.2578541094945116  1.0000
  I   I4        1.0  0.25785411169131195  0.7421458736345863  0.7421458905119299  1.0000
  I   I5        1.0  0.257854125064661  0.7421459019463996  0.25785409760752925  1.0000
  I   I6        1.0  0.7421458773790671  0.2578541201378928  0.7421458983870431  1.0000
