data_image0
_chemical_formula_structural       Se2ZnCl6
_chemical_formula_sum              "Se2 Zn1 Cl6"
_cell_length_a       6.542007537778188
_cell_length_b       6.542007290645476
_cell_length_c       6.542007219648715
_cell_angle_alpha    60.00000041023618
_cell_angle_beta     60.00000018539641
_cell_angle_gamma    59.999999496235134

_space_group_name_H-M_alt    "P 1"
_space_group_IT_number       1

loop_
  _space_group_symop_operation_xyz
  'x, y, z'

loop_
  _atom_site_type_symbol
  _atom_site_label
  _atom_site_symmetry_multiplicity
  _atom_site_fract_x
  _atom_site_fract_y
  _atom_site_fract_z
  _atom_site_occupancy
  Se  Se1       1.0  0.24999971725941453  0.24999999978616355  0.25000019852659305  1.0000
  Se  Se2       1.0  0.7499999172769203  0.7500000274403489  0.7500001636320979  1.0000
  Zn  Zn1       1.0  4.038213528529917e-08  1.1232743951974793e-08  0.9999999955927198  1.0000
  Cl  Cl1       1.0  0.25505494027046194  0.255054827365663  0.7449451426340945  1.0000
  Cl  Cl2       1.0  0.7449451783744263  0.7449450819170372  0.255054856069445  1.0000
  Cl  Cl3       1.0  0.7449452192920547  0.2550548121627164  0.25505483859796113  1.0000
  Cl  Cl4       1.0  0.25505488104149954  0.7449451626443224  0.7449450386697744  1.0000
  Cl  Cl5       1.0  0.2550549212211791  0.7449451690857358  0.25505477335914434  1.0000
  Cl  Cl6       1.0  0.7449451907886103  0.25505490307174966  0.7449449958948506  1.0000
