data_image0
_chemical_formula_structural       Si2CO6
_chemical_formula_sum              "Si2 C1 O6"
_cell_length_a       4.793324588034728
_cell_length_b       4.793324340630887
_cell_length_c       4.793324315853561
_cell_angle_alpha    59.999999596353064
_cell_angle_beta     60.00000144207959
_cell_angle_gamma    60.000001761399524

_space_group_name_H-M_alt    "P 1"
_space_group_IT_number       1

loop_
  _space_group_symop_operation_xyz
  'x, y, z'

loop_
  _atom_site_type_symbol
  _atom_site_label
  _atom_site_symmetry_multiplicity
  _atom_site_fract_x
  _atom_site_fract_y
  _atom_site_fract_z
  _atom_site_occupancy
  Si  Si1       1.0  0.25000135120901373  0.24999968782939652  0.24999948943444386  1.0000
  Si  Si2       1.0  0.7500019203177547  0.7499992193495557  0.7499992525762873  1.0000
  C   C1        1.0  0.9999999219149293  1.0220419048019905e-08  6.313961328747785e-08  1.0000
  O   O1        1.0  0.21969286620582212  0.21969351842224702  0.7803068715457935  1.0000
  O   O2        1.0  0.7803060662654515  0.7803069729219055  0.21969339811899816  1.0000
  O   O3        1.0  0.780306182157783  0.21969340840558255  0.2196935335598752  1.0000
  O   O4        1.0  0.21969278492023245  0.7803067839912433  0.780306826550514  1.0000
  O   O5        1.0  0.21969264208324954  0.780306779053642  0.2196937157400209  1.0000
  O   O6        1.0  0.780306304624838  0.21969359731076854  0.7803068045747762  1.0000
