data_image0
_chemical_formula_structural       Si2NiO6
_chemical_formula_sum              "Si2 Ni1 O6"
_cell_length_a       4.935630460734841
_cell_length_b       4.935630517609047
_cell_length_c       4.9356304776527695
_cell_angle_alpha    60.000000789587425
_cell_angle_beta     60.00000168942117
_cell_angle_gamma    59.99999874150259

_space_group_name_H-M_alt    "P 1"
_space_group_IT_number       1

loop_
  _space_group_symop_operation_xyz
  'x, y, z'

loop_
  _atom_site_type_symbol
  _atom_site_label
  _atom_site_symmetry_multiplicity
  _atom_site_fract_x
  _atom_site_fract_y
  _atom_site_fract_z
  _atom_site_occupancy
  Si  Si1       1.0  0.24999967246200763  0.2499988518636515  0.2500004466587792  1.0000
  Si  Si2       1.0  0.749999585080877  0.7499996251266359  0.7500004209422112  1.0000
  Ni  Ni1       1.0  0.9999999996674682  9.925741945543236e-08  0.999999932302804  1.0000
  O   O1        1.0  0.2565603541363817  0.25656011160089515  0.7434400213225063  1.0000
  O   O2        1.0  0.7434395719122343  0.7434401148013932  0.2565601742317896  1.0000
  O   O3        1.0  0.7434397658772226  0.2565609834791502  0.25655931549601696  1.0000
  O   O4        1.0  0.2565607574258028  0.7434397392102211  0.7434399523838247  1.0000
  O   O5        1.0  0.2565598788755675  0.7434406007051881  0.2565605073380096  1.0000
  O   O6        1.0  0.7434404240666848  0.256559940839398  0.7434391659290517  1.0000
