data_image0
_chemical_formula_structural       Si2NiSe6
_chemical_formula_sum              "Si2 Ni1 Se6"
_cell_length_a       6.405051831397421
_cell_length_b       6.405051872285981
_cell_length_c       6.405051844527579
_cell_angle_alpha    60.000001734317166
_cell_angle_beta     60.00000113493555
_cell_angle_gamma    60.00000267720848

_space_group_name_H-M_alt    "P 1"
_space_group_IT_number       1

loop_
  _space_group_symop_operation_xyz
  'x, y, z'

loop_
  _atom_site_type_symbol
  _atom_site_label
  _atom_site_symmetry_multiplicity
  _atom_site_fract_x
  _atom_site_fract_y
  _atom_site_fract_z
  _atom_site_occupancy
  Si  Si1       1.0  0.24999977293160264  0.25000058067784514  0.2499998577842767  1.0000
  Si  Si2       1.0  0.7499999382454332  0.7499996673459683  0.7499999668600127  1.0000
  Ni  Ni1       1.0  2.1742915934087037e-08  0.9999999942635367  0.999999967016492  1.0000
  Se  Se1       1.0  0.2535430725384575  0.25354319586978347  0.7464568595132871  1.0000
  Se  Se2       1.0  0.7464570266461709  0.7464567156148589  0.2535432813143981  1.0000
  Se  Se3       1.0  0.7464568588021036  0.2535431895392295  0.25354309774934985  1.0000
  Se  Se4       1.0  0.25354327397951193  0.7464567563641933  0.7464569997028468  1.0000
  Se  Se5       1.0  0.25354314750704027  0.7464565986542955  0.25354310977140965  1.0000
  Se  Se6       1.0  0.7464568869956274  0.25354330135741626  0.7464568536787902  1.0000
