data_image0
_chemical_formula_structural       Si2NiS6
_chemical_formula_sum              "Si2 Ni1 S6"
_cell_length_a       5.909348621941228
_cell_length_b       5.9093485314974314
_cell_length_c       5.90934860009145
_cell_angle_alpha    59.99999938248131
_cell_angle_beta     59.99999999963575
_cell_angle_gamma    59.99999928966294

_space_group_name_H-M_alt    "P 1"
_space_group_IT_number       1

loop_
  _space_group_symop_operation_xyz
  'x, y, z'

loop_
  _atom_site_type_symbol
  _atom_site_label
  _atom_site_symmetry_multiplicity
  _atom_site_fract_x
  _atom_site_fract_y
  _atom_site_fract_z
  _atom_site_occupancy
  Si  Si1       1.0  0.2499998953653471  0.24999999507988324  0.25000025716469065  1.0000
  Si  Si2       1.0  0.7499998574371046  0.7500000515614045  0.7500003802130053  1.0000
  Ni  Ni1       1.0  4.361835483825136e-09  1.0362774188652242e-08  0.9999999672541867  1.0000
  S   S1        1.0  0.2535792986434443  0.25357915109122886  0.7464207135141083  1.0000
  S   S2        1.0  0.7464207775617921  0.7464207753418799  0.2535790861445404  1.0000
  S   S3        1.0  0.7464207821707157  0.2535793103871613  0.2535790881787698  1.0000
  S   S4        1.0  0.25357926533367314  0.7464207549071209  0.7464207139356683  1.0000
  S   S5        1.0  0.2535793158367622  0.7464207166048897  0.25357913643853236  1.0000
  S   S6        1.0  0.746420806337121  0.2535792243361027  0.7464206600575934  1.0000
