data_image0
_chemical_formula_structural       Si2NiTe6
_chemical_formula_sum              "Si2 Ni1 Te6"
_cell_length_a       6.815378918190544
_cell_length_b       6.81537884921292
_cell_length_c       6.815378830440541
_cell_angle_alpha    60.00000032204184
_cell_angle_beta     59.99999959219907
_cell_angle_gamma    60.000000050300045

_space_group_name_H-M_alt    "P 1"
_space_group_IT_number       1

loop_
  _space_group_symop_operation_xyz
  'x, y, z'

loop_
  _atom_site_type_symbol
  _atom_site_label
  _atom_site_symmetry_multiplicity
  _atom_site_fract_x
  _atom_site_fract_y
  _atom_site_fract_z
  _atom_site_occupancy
  Si  Si1       1.0  0.2500000093580341  0.24999999663936923  0.2500000112364245  1.0000
  Si  Si2       1.0  0.7500000224099539  0.7499999611656077  0.7500000127685813  1.0000
  Ni  Ni1       1.0  3.2681076196358047e-09  3.5940624609641545e-08  0.9999999627883955  1.0000
  Te  Te1       1.0  0.26116524150798054  0.2611652978373266  0.7388347217366064  1.0000
  Te  Te2       1.0  0.7388347108001965  0.7388347102845247  0.26116528749447104  1.0000
  Te  Te3       1.0  0.7388347114800665  0.2611653061197716  0.26116525441464183  1.0000
  Te  Te4       1.0  0.26116524010869285  0.7388347397397357  0.7388347421763959  1.0000
  Te  Te5       1.0  0.26116529520124787  0.7388346830734923  0.2611652852568707  1.0000
  Te  Te6       1.0  0.7388347632813941  0.2611652657463286  0.7388347254815764  1.0000
