data_image0
_chemical_formula_structural       Si2PS6
_chemical_formula_sum              "Si2 P1 S6"
_cell_length_a       6.0533877401377785
_cell_length_b       6.053387892040929
_cell_length_c       6.053387881269545
_cell_angle_alpha    59.999998169112494
_cell_angle_beta     59.99999812708424
_cell_angle_gamma    59.999997097068785

_space_group_name_H-M_alt    "P 1"
_space_group_IT_number       1

loop_
  _space_group_symop_operation_xyz
  'x, y, z'

loop_
  _atom_site_type_symbol
  _atom_site_label
  _atom_site_symmetry_multiplicity
  _atom_site_fract_x
  _atom_site_fract_y
  _atom_site_fract_z
  _atom_site_occupancy
  Si  Si1       1.0  0.24999994657226027  0.2500006327599826  0.24999982682267616  1.0000
  Si  Si2       1.0  0.750000323783654  0.7499997536468465  0.7500007154832048  1.0000
  P   P1        1.0  0.999999977552657  1.0116195517118718e-08  0.9999999367829391  1.0000
  S   S1        1.0  0.2500796732254328  0.25007985213475276  0.7499201405982407  1.0000
  S   S2        1.0  0.7499203140529138  0.7499201073687265  0.2500795193744555  1.0000
  S   S3        1.0  0.749920239168486  0.2500798911380147  0.25007952162378627  1.0000
  S   S4        1.0  0.25007957059405883  0.7499200744351817  0.7499204157001828  1.0000
  S   S5        1.0  0.25007973745016904  0.7499200425975026  0.2500797003841006  1.0000
  S   S6        1.0  0.7499202069039873  0.25007963365254937  0.7499202498789058  1.0000
