data_image0
_chemical_formula_structural       Si2SO6
_chemical_formula_sum              "Si2 S1 O6"
_cell_length_a       4.9822365737880325
_cell_length_b       4.982237351657578
_cell_length_c       4.982237316094001
_cell_angle_alpha    60.00000869140869
_cell_angle_beta     60.000002734712446
_cell_angle_gamma    60.000003751649984

_space_group_name_H-M_alt    "P 1"
_space_group_IT_number       1

loop_
  _space_group_symop_operation_xyz
  'x, y, z'

loop_
  _atom_site_type_symbol
  _atom_site_label
  _atom_site_symmetry_multiplicity
  _atom_site_fract_x
  _atom_site_fract_y
  _atom_site_fract_z
  _atom_site_occupancy
  Si  Si1       1.0  0.2500022584501633  0.24999771897781664  0.25000001603929045  1.0000
  Si  Si2       1.0  0.7499977719858245  0.7500019573702233  0.7500030980564227  1.0000
  S   S1        1.0  3.7760961812089265e-08  4.916423918576544e-09  0.9999996896345313  1.0000
  O   O1        1.0  0.23185989548568675  0.23185868492261727  0.7681406163890462  1.0000
  O   O2        1.0  0.7681400388664458  0.7681414117811853  0.2318582671174043  1.0000
  O   O3        1.0  0.7681404286048897  0.23185939712022988  0.23185896581492216  1.0000
  O   O4        1.0  0.23185919138418346  0.7681411420636357  0.7681401105457284  1.0000
  O   O5        1.0  0.2318601267452315  0.7681411111062667  0.2318582087692499  1.0000
  O   O6        1.0  0.7681402585457437  0.23185859228195668  0.768140999180521  1.0000
