data_image0
_chemical_formula_structural       Sn2AgCl6
_chemical_formula_sum              "Sn2 Ag1 Cl6"
_cell_length_a       6.744223937398377
_cell_length_b       6.744224039594857
_cell_length_c       6.74422402168788
_cell_angle_alpha    60.000000389625896
_cell_angle_beta     60.000000589293435
_cell_angle_gamma    60.000000625014344

_space_group_name_H-M_alt    "P 1"
_space_group_IT_number       1

loop_
  _space_group_symop_operation_xyz
  'x, y, z'

loop_
  _atom_site_type_symbol
  _atom_site_label
  _atom_site_symmetry_multiplicity
  _atom_site_fract_x
  _atom_site_fract_y
  _atom_site_fract_z
  _atom_site_occupancy
  Sn  Sn1       1.0  0.2500000193398031  0.2499999554777872  0.2500000594133025  1.0000
  Sn  Sn2       1.0  0.7500001203979505  0.7499999772087989  0.7499999804566485  1.0000
  Ag  Ag1       1.0  0.9999999962285221  7.80876033306037e-08  0.9999999643246877  1.0000
  Cl  Cl1       1.0  0.2576894091119833  0.25768949039205674  0.7423105317797396  1.0000
  Cl  Cl2       1.0  0.7423104983276158  0.7423105330940678  0.25768947059874814  1.0000
  Cl  Cl3       1.0  0.7423105154486742  0.25768949092812915  0.2576894249013874  1.0000
  Cl  Cl4       1.0  0.257689459784857  0.7423105089501154  0.7423105301773203  1.0000
  Cl  Cl5       1.0  0.2576894696504474  0.742310480072525  0.25768948179888496  1.0000
  Cl  Cl6       1.0  0.7423104930106453  0.2576894907498671  0.7423105667487311  1.0000
