data_image0
_chemical_formula_structural       Sn2AuCl6
_chemical_formula_sum              "Sn2 Au1 Cl6"
_cell_length_a       6.7493441113555415
_cell_length_b       6.749343882292015
_cell_length_c       6.74934388754754
_cell_angle_alpha    59.9999978822093
_cell_angle_beta     60.00000037734772
_cell_angle_gamma    59.99999813644218

_space_group_name_H-M_alt    "P 1"
_space_group_IT_number       1

loop_
  _space_group_symop_operation_xyz
  'x, y, z'

loop_
  _atom_site_type_symbol
  _atom_site_label
  _atom_site_symmetry_multiplicity
  _atom_site_fract_x
  _atom_site_fract_y
  _atom_site_fract_z
  _atom_site_occupancy
  Sn  Sn1       1.0  0.2500000312012916  0.2500000794225637  0.24999995511464126  1.0000
  Sn  Sn2       1.0  0.7499999909243591  0.7499999406711132  0.750000038812717  1.0000
  Au  Au1       1.0  3.069122696929777e-08  5.443838848986655e-09  2.489960628606668e-08  1.0000
  Cl  Cl1       1.0  0.25544720413173666  0.25544729483138784  0.7445527661966311  1.0000
  Cl  Cl2       1.0  0.7445526893018812  0.7445526853407965  0.2554473327802479  1.0000
  Cl  Cl3       1.0  0.7445527591637225  0.2554472783076086  0.25544720552268235  1.0000
  Cl  Cl4       1.0  0.25544726980526294  0.7445527417860694  0.744552719791486  1.0000
  Cl  Cl5       1.0  0.2554472815248544  0.7445527121341803  0.2554472327270407  1.0000
  Cl  Cl6       1.0  0.7445527529057776  0.255447260779552  0.7445527223360308  1.0000
