data_image0
_chemical_formula_structural       Sn2AuBr6
_chemical_formula_sum              "Sn2 Au1 Br6"
_cell_length_a       7.092155914341568
_cell_length_b       7.092155899682053
_cell_length_c       7.092155815361142
_cell_angle_alpha    60.00000064649814
_cell_angle_beta     60.00000031387285
_cell_angle_gamma    60.00000085502673

_space_group_name_H-M_alt    "P 1"
_space_group_IT_number       1

loop_
  _space_group_symop_operation_xyz
  'x, y, z'

loop_
  _atom_site_type_symbol
  _atom_site_label
  _atom_site_symmetry_multiplicity
  _atom_site_fract_x
  _atom_site_fract_y
  _atom_site_fract_z
  _atom_site_occupancy
  Sn  Sn1       1.0  0.2500000151912886  0.24999996114644824  0.25000007721771167  1.0000
  Sn  Sn2       1.0  0.7499999705807765  0.7499998886200453  0.7499999182872295  1.0000
  Au  Au1       1.0  0.9999999615821512  2.244970748003896e-08  0.9999998035328379  1.0000
  Br  Br1       1.0  0.25717789017386417  0.2571779031504676  0.742822085866672  1.0000
  Br  Br2       1.0  0.742822143353027  0.7428221745669117  0.25717790150619557  1.0000
  Br  Br3       1.0  0.7428220290684285  0.257177953498942  0.2571779215273412  1.0000
  Br  Br4       1.0  0.2571778725454315  0.7428221829330588  0.7428221616650886  1.0000
  Br  Br5       1.0  0.2571779226538649  0.7428220396620011  0.25717796414505834  1.0000
  Br  Br6       1.0  0.7428221959171919  0.25717787572671846  0.7428221718507191  1.0000
