data_image0
_chemical_formula_structural       Sn2AgI6
_chemical_formula_sum              "Sn2 Ag1 I6"
_cell_length_a       7.572652890040548
_cell_length_b       7.572652796511422
_cell_length_c       7.572652855881898
_cell_angle_alpha    60.00000001146029
_cell_angle_beta     60.0000001807263
_cell_angle_gamma    60.00000082904455

_space_group_name_H-M_alt    "P 1"
_space_group_IT_number       1

loop_
  _space_group_symop_operation_xyz
  'x, y, z'

loop_
  _atom_site_type_symbol
  _atom_site_label
  _atom_site_symmetry_multiplicity
  _atom_site_fract_x
  _atom_site_fract_y
  _atom_site_fract_z
  _atom_site_occupancy
  Sn  Sn1       1.0  0.25000004557768485  0.25000008799656565  0.2499999102862343  1.0000
  Sn  Sn2       1.0  0.7499997864715793  0.7500001071090656  0.7500000438541092  1.0000
  Ag  Ag1       1.0  0.9999999600161841  0.9999999644188264  9.060414219022012e-08  1.0000
  I   I1        1.0  0.2597120138593694  0.2597118867201129  0.7402880508474552  1.0000
  I   I2        1.0  0.7402881010419347  0.7402880819598738  0.2597119384656671  1.0000
  I   I3        1.0  0.7402880939570291  0.2597118704199871  0.2597119371148546  1.0000
  I   I4        1.0  0.259712023594931  0.7402880125417185  0.7402880726034211  1.0000
  I   I5        1.0  0.25971198568593745  0.7402880434701138  0.2597118554138961  1.0000
  I   I6        1.0  0.7402879885610573  0.2597119446177837  0.7402881020845422  1.0000
