data_image0
_chemical_formula_structural       Sn2AuI6
_chemical_formula_sum              "Sn2 Au1 I6"
_cell_length_a       7.635752355281653
_cell_length_b       7.635752366384726
_cell_length_c       7.63575233040803
_cell_angle_alpha    59.999999816892775
_cell_angle_beta     60.000000192488564
_cell_angle_gamma    60.00000027560539

_space_group_name_H-M_alt    "P 1"
_space_group_IT_number       1

loop_
  _space_group_symop_operation_xyz
  'x, y, z'

loop_
  _atom_site_type_symbol
  _atom_site_label
  _atom_site_symmetry_multiplicity
  _atom_site_fract_x
  _atom_site_fract_y
  _atom_site_fract_z
  _atom_site_occupancy
  Sn  Sn1       1.0  0.24999994368549588  0.2499999805962607  0.25000006681870307  1.0000
  Sn  Sn2       1.0  0.7500000263619957  0.7500000091551428  0.750000164723066  1.0000
  Au  Au1       1.0  0.9999999979373788  2.887129727750555e-08  2.311205645824133e-09  1.0000
  I   I1        1.0  0.2609879513209148  0.26098794681998855  0.7390120320398537  1.0000
  I   I2        1.0  0.7390120331464858  0.7390120268918067  0.26098788862014694  1.0000
  I   I3        1.0  0.7390120589282858  0.26098799120338356  0.2609879126083863  1.0000
  I   I4        1.0  0.26098791348579986  0.7390120594985378  0.7390120083239249  1.0000
  I   I5        1.0  0.2609880027969034  0.7390120534686434  0.26098790408188816  1.0000
  I   I6        1.0  0.739012071793584  0.26098789939165934  0.7390120159926603  1.0000
