data_image0
_chemical_formula_structural       Sn2AgF6
_chemical_formula_sum              "Sn2 Ag1 F6"
_cell_length_a       5.698273587301692
_cell_length_b       5.698273747382445
_cell_length_c       5.698273520203604
_cell_angle_alpha    59.99999987867388
_cell_angle_beta     59.999999771844394
_cell_angle_gamma    59.999999319006726

_space_group_name_H-M_alt    "P 1"
_space_group_IT_number       1

loop_
  _space_group_symop_operation_xyz
  'x, y, z'

loop_
  _atom_site_type_symbol
  _atom_site_label
  _atom_site_symmetry_multiplicity
  _atom_site_fract_x
  _atom_site_fract_y
  _atom_site_fract_z
  _atom_site_occupancy
  Sn  Sn1       1.0  0.24999992017587438  0.2500000574829307  0.2499999809409682  1.0000
  Sn  Sn2       1.0  0.7499999855639384  0.7499999897560662  0.7500000006223989  1.0000
  Ag  Ag1       1.0  1.2056593250466414e-08  0.9999999699094342  0.9999999826932239  1.0000
  F   F1        1.0  0.26318299235453935  0.26318304539356163  0.7368169857717827  1.0000
  F   F2        1.0  0.7368170072144762  0.736816969605541  0.26318302290920803  1.0000
  F   F3        1.0  0.7368170436196726  0.26318298720323824  0.2631829853095763  1.0000
  F   F4        1.0  0.26318299948720697  0.7368169762120361  0.7368170519632423  1.0000
  F   F5        1.0  0.2631829984244975  0.7368170064816383  0.26318297777475014  1.0000
  F   F6        1.0  0.7368170224726778  0.26318302356274725  0.7368170056998489  1.0000
