data_image0
_chemical_formula_structural       Sn2AgBr6
_chemical_formula_sum              "Sn2 Ag1 Br6"
_cell_length_a       7.103870604820359
_cell_length_b       7.103870583412184
_cell_length_c       7.103870642202918
_cell_angle_alpha    60.00000042233534
_cell_angle_beta     60.00000026596941
_cell_angle_gamma    60.00000042568663

_space_group_name_H-M_alt    "P 1"
_space_group_IT_number       1

loop_
  _space_group_symop_operation_xyz
  'x, y, z'

loop_
  _atom_site_type_symbol
  _atom_site_label
  _atom_site_symmetry_multiplicity
  _atom_site_fract_x
  _atom_site_fract_y
  _atom_site_fract_z
  _atom_site_occupancy
  Sn  Sn1       1.0  0.2500000096563876  0.2500000385992431  0.24999999475593343  1.0000
  Sn  Sn2       1.0  0.7499999867581445  0.7500000278710309  0.7499999690987107  1.0000
  Ag  Ag1       1.0  0.9999999691163997  2.648980143697208e-16  7.034144825767517e-08  1.0000
  Br  Br1       1.0  0.259225786867855  0.2592257522174861  0.7407742365960939  1.0000
  Br  Br2       1.0  0.7407742493632598  0.7407742435666195  0.2592257553624923  1.0000
  Br  Br3       1.0  0.7407742641830004  0.25922574329876114  0.2592257576555723  1.0000
  Br  Br4       1.0  0.2592257618531485  0.7407741904194399  0.7407742450951496  1.0000
  Br  Br5       1.0  0.25922574040647306  0.740774258106365  0.259225760256529  1.0000
  Br  Br6       1.0  0.7407742333841562  0.2592257445739517  0.7407742087975959  1.0000
