data_image0
_chemical_formula_structural       Sn2BeF6
_chemical_formula_sum              "Sn2 Be1 F6"
_cell_length_a       5.322369663715779
_cell_length_b       5.322369720981703
_cell_length_c       5.322369823393032
_cell_angle_alpha    60.00000074588261
_cell_angle_beta     60.00000076726692
_cell_angle_gamma    60.00000131603578

_space_group_name_H-M_alt    "P 1"
_space_group_IT_number       1

loop_
  _space_group_symop_operation_xyz
  'x, y, z'

loop_
  _atom_site_type_symbol
  _atom_site_label
  _atom_site_symmetry_multiplicity
  _atom_site_fract_x
  _atom_site_fract_y
  _atom_site_fract_z
  _atom_site_occupancy
  Sn  Sn1       1.0  0.24999998268999862  0.24999998511950206  0.2500000010455953  1.0000
  Sn  Sn2       1.0  0.7500000226872782  0.7500000243923169  0.750000006465733  1.0000
  Be  Be1       1.0  0.9999999739657196  0.9999999999999997  0.9999999979862416  1.0000
  F   F1        1.0  0.23463440324320559  0.23463428542808643  0.7653655985960996  1.0000
  F   F2        1.0  0.7653656345227372  0.7653657701062715  0.23463425697788906  1.0000
  F   F3        1.0  0.7653656434476351  0.23463429837373095  0.23463434744040532  1.0000
  F   F4        1.0  0.23463426287603142  0.7653657479561196  0.765365738160269  1.0000
  F   F5        1.0  0.23463434892227666  0.7653656373161862  0.23463435378028225  1.0000
  F   F6        1.0  0.7653656742737361  0.23463423412801435  0.7653657627059058  1.0000
