data_image0
_chemical_formula_structural       Sn2BeBr6
_chemical_formula_sum              "Sn2 Be1 Br6"
_cell_length_a       6.8576936446543195
_cell_length_b       6.857693672615165
_cell_length_c       6.857693708389884
_cell_angle_alpha    59.999999816283406
_cell_angle_beta     59.99999968984183
_cell_angle_gamma    60.0000001326191

_space_group_name_H-M_alt    "P 1"
_space_group_IT_number       1

loop_
  _space_group_symop_operation_xyz
  'x, y, z'

loop_
  _atom_site_type_symbol
  _atom_site_label
  _atom_site_symmetry_multiplicity
  _atom_site_fract_x
  _atom_site_fract_y
  _atom_site_fract_z
  _atom_site_occupancy
  Sn  Sn1       1.0  0.24999998077891544  0.25000002399470744  0.2500000246813873  1.0000
  Sn  Sn2       1.0  0.7499999606017274  0.7500001737828627  0.7499999381850594  1.0000
  Be  Be1       1.0  1.1378062251652987e-08  2.1431313765231715e-08  0.9999999908863929  1.0000
  Br  Br1       1.0  0.24587683803562677  0.24587677310918982  0.754123187345537  1.0000
  Br  Br2       1.0  0.754123167198355  0.7541231371315879  0.2458768436161507  1.0000
  Br  Br3       1.0  0.7541231975835392  0.24587678148510284  0.24587686458851396  1.0000
  Br  Br4       1.0  0.24587682625689145  0.7541231537588741  0.7541231678998087  1.0000
  Br  Br5       1.0  0.24587679682687189  0.7541231663194901  0.245876857935094  1.0000
  Br  Br6       1.0  0.7541232141384486  0.24587676713854417  0.7541231425119177  1.0000
