data_image0
_chemical_formula_structural       Sn2BeCl6
_chemical_formula_sum              "Sn2 Be1 Cl6"
_cell_length_a       6.474257307980609
_cell_length_b       6.474257482230993
_cell_length_c       6.474257323413975
_cell_angle_alpha    60.000001073863686
_cell_angle_beta     60.0000004207485
_cell_angle_gamma    60.00000075243365

_space_group_name_H-M_alt    "P 1"
_space_group_IT_number       1

loop_
  _space_group_symop_operation_xyz
  'x, y, z'

loop_
  _atom_site_type_symbol
  _atom_site_label
  _atom_site_symmetry_multiplicity
  _atom_site_fract_x
  _atom_site_fract_y
  _atom_site_fract_z
  _atom_site_occupancy
  Sn  Sn1       1.0  0.25000004162297773  0.24999994050040628  0.2500000765312463  1.0000
  Sn  Sn2       1.0  0.7500000098545827  0.7500000541821368  0.7500000224808995  1.0000
  Be  Be1       1.0  1.5943543892393855e-08  5.6751442894880416e-09  3.0918643360278555e-09  1.0000
  Cl  Cl1       1.0  0.24380868028648522  0.24380865370986474  0.7561912921749414  1.0000
  Cl  Cl2       1.0  0.7561912922831807  0.7561913636732557  0.24380865422515424  1.0000
  Cl  Cl3       1.0  0.7561913230260228  0.24380862520615465  0.2438086762135816  1.0000
  Cl  Cl4       1.0  0.2438086814678547  0.7561913392089519  0.7561912930650446  1.0000
  Cl  Cl5       1.0  0.2438086252436135  0.7561913556775527  0.24380867594092084  1.0000
  Cl  Cl6       1.0  0.7561913154389649  0.24380865035527916  0.7561913368706452  1.0000
