data_image0
_chemical_formula_structural       Sn2CrSe6
_chemical_formula_sum              "Sn2 Cr1 Se6"
_cell_length_a       6.613914142554068
_cell_length_b       6.613914348068869
_cell_length_c       6.613914184607792
_cell_angle_alpha    59.999999202963565
_cell_angle_beta     59.99999931747267
_cell_angle_gamma    60.00000050606182

_space_group_name_H-M_alt    "P 1"
_space_group_IT_number       1

loop_
  _space_group_symop_operation_xyz
  'x, y, z'

loop_
  _atom_site_type_symbol
  _atom_site_label
  _atom_site_symmetry_multiplicity
  _atom_site_fract_x
  _atom_site_fract_y
  _atom_site_fract_z
  _atom_site_occupancy
  Sn  Sn1       1.0  0.25000002258471987  0.2500001006251561  0.24999993410399754  1.0000
  Sn  Sn2       1.0  0.7499999697801041  0.7499999463356103  0.7500000834996573  1.0000
  Cr  Cr1       1.0  0.9999999975309732  7.407080730721017e-09  0.9999999733395493  1.0000
  Se  Se1       1.0  0.2576887522972803  0.2576887436552508  0.7423112291195045  1.0000
  Se  Se2       1.0  0.742311241955653  0.7423112347900237  0.25768874166375155  1.0000
  Se  Se3       1.0  0.7423112660717684  0.2576887541325749  0.25768873997949693  1.0000
  Se  Se4       1.0  0.2576887665720391  0.7423112557927911  0.7423112170357714  1.0000
  Se  Se5       1.0  0.25768873797603487  0.742311248984166  0.257688778120882  1.0000
  Se  Se6       1.0  0.7423112450967135  0.2576887053880956  0.7423113085666319  1.0000
