data_image0
_chemical_formula_structural       Sn2CoI6
_chemical_formula_sum              "Sn2 Co1 I6"
_cell_length_a       7.460708959577594
_cell_length_b       7.460708995892751
_cell_length_c       7.460709062327059
_cell_angle_alpha    59.99999964812766
_cell_angle_beta     59.99999994141777
_cell_angle_gamma    60.00000046278265

_space_group_name_H-M_alt    "P 1"
_space_group_IT_number       1

loop_
  _space_group_symop_operation_xyz
  'x, y, z'

loop_
  _atom_site_type_symbol
  _atom_site_label
  _atom_site_symmetry_multiplicity
  _atom_site_fract_x
  _atom_site_fract_y
  _atom_site_fract_z
  _atom_site_occupancy
  Sn  Sn1       1.0  0.2499999421263402  0.2500000391378737  0.25000001923621457  1.0000
  Sn  Sn2       1.0  0.7500001144272921  0.7499999729534267  0.7499999899356716  1.0000
  Co  Co1       1.0  0.9999999989056046  3.2831862526314056e-09  1.09688011181899e-08  1.0000
  I   I1        1.0  0.247728565617958  0.24772860665645144  0.7522714208886212  1.0000
  I   I2        1.0  0.7522714229303682  0.752271400510069  0.2477285523691283  1.0000
  I   I3        1.0  0.7522714214812692  0.24772859567305822  0.24772857451524835  1.0000
  I   I4        1.0  0.24772856398774729  0.7522713835863789  0.7522714517656425  1.0000
  I   I5        1.0  0.24772855666693622  0.7522714273524925  0.24772859069074646  1.0000
  I   I6        1.0  0.7522714073058169  0.24772856996446904  0.752271406481345  1.0000
