data_image0
_chemical_formula_structural       Sn2CdF6
_chemical_formula_sum              "Sn2 Cd1 F6"
_cell_length_a       5.743711146372114
_cell_length_b       5.7437111819025874
_cell_length_c       5.7437112134385355
_cell_angle_alpha    60.00000028847132
_cell_angle_beta     60.000000629609815
_cell_angle_gamma    59.999999770647044

_space_group_name_H-M_alt    "P 1"
_space_group_IT_number       1

loop_
  _space_group_symop_operation_xyz
  'x, y, z'

loop_
  _atom_site_type_symbol
  _atom_site_label
  _atom_site_symmetry_multiplicity
  _atom_site_fract_x
  _atom_site_fract_y
  _atom_site_fract_z
  _atom_site_occupancy
  Sn  Sn1       1.0  0.2500001413039011  0.24999993156787156  0.2499999791300801  1.0000
  Sn  Sn2       1.0  0.7500000639502084  0.7499999759510902  0.7499999658110365  1.0000
  Cd  Cd1       1.0  0.9999999953904283  0.9999999957353536  2.8811593525132488e-08  1.0000
  F   F1        1.0  0.26380598216362877  0.263806104541775  0.7361939241905252  1.0000
  F   F2        1.0  0.7361938554114936  0.736194037532743  0.263806038563336  1.0000
  F   F3        1.0  0.7361939233825886  0.2638060243156558  0.26380605936204304  1.0000
  F   F4        1.0  0.2638060562009537  0.7361939450406808  0.7361939396391146  1.0000
  F   F5        1.0  0.26380602168832123  0.7361939315426812  0.2638060668344725  1.0000
  F   F6        1.0  0.7361939265410448  0.26380606553385744  0.736194019294368  1.0000
