data_image0
_chemical_formula_structural       Sn2CrF6
_chemical_formula_sum              "Sn2 Cr1 F6"
_cell_length_a       5.688665765816883
_cell_length_b       5.688665620381604
_cell_length_c       5.688665855827026
_cell_angle_alpha    59.999999175589004
_cell_angle_beta     59.99999877170769
_cell_angle_gamma    59.99999967906587

_space_group_name_H-M_alt    "P 1"
_space_group_IT_number       1

loop_
  _space_group_symop_operation_xyz
  'x, y, z'

loop_
  _atom_site_type_symbol
  _atom_site_label
  _atom_site_symmetry_multiplicity
  _atom_site_fract_x
  _atom_site_fract_y
  _atom_site_fract_z
  _atom_site_occupancy
  Sn  Sn1       1.0  0.25000002972143737  0.250000024184316  0.24999997486916087  1.0000
  Sn  Sn2       1.0  0.749999979001401  0.7499999950465179  0.7499999903160507  1.0000
  Cr  Cr1       1.0  1.5172698351207517e-08  0.9999999849293054  0.9999999718228954  1.0000
  F   F1        1.0  0.24136210978936995  0.24136212434127882  0.7586378991970003  1.0000
  F   F2        1.0  0.7586378247129145  0.758637813077213  0.24136217037288035  1.0000
  F   F3        1.0  0.7586378854557243  0.24136215856490684  0.24136210744967698  1.0000
  F   F4        1.0  0.24136211106702798  0.7586378972661854  0.7586378842088398  1.0000
  F   F5        1.0  0.24136214911176146  0.7586378733176178  0.24136213367763026  1.0000
  F   F6        1.0  0.7586378956765638  0.24136213514843502  0.7586378645621448  1.0000
