data_image0
_chemical_formula_structural       Sn2CuCl6
_chemical_formula_sum              "Sn2 Cu1 Cl6"
_cell_length_a       6.605358532293575
_cell_length_b       6.605358524882343
_cell_length_c       6.605358541333711
_cell_angle_alpha    60.000000347906926
_cell_angle_beta     60.00000050401865
_cell_angle_gamma    60.00000072791469

_space_group_name_H-M_alt    "P 1"
_space_group_IT_number       1

loop_
  _space_group_symop_operation_xyz
  'x, y, z'

loop_
  _atom_site_type_symbol
  _atom_site_label
  _atom_site_symmetry_multiplicity
  _atom_site_fract_x
  _atom_site_fract_y
  _atom_site_fract_z
  _atom_site_occupancy
  Sn  Sn1       1.0  0.2500000392272776  0.24999981929643364  0.25000011487782037  1.0000
  Sn  Sn2       1.0  0.7499999760892591  0.7500001606192153  0.749999840004283  1.0000
  Cu  Cu1       1.0  2.057155063524048e-08  0.9999999907291569  6.461025161398681e-09  1.0000
  Cl  Cl1       1.0  0.25007931351355883  0.2500793107619165  0.749920677400364  1.0000
  Cl  Cl2       1.0  0.7499206742207258  0.7499207099454426  0.25007934051743863  1.0000
  Cl  Cl3       1.0  0.7499207275689749  0.25007920528787186  0.25007932827322293  1.0000
  Cl  Cl4       1.0  0.2500792949521532  0.7499207635027654  0.7499207163765873  1.0000
  Cl  Cl5       1.0  0.25007925368161027  0.7499207583937214  0.250079262477787  1.0000
  Cl  Cl6       1.0  0.7499207131629988  0.25007928827199827  0.7499207090019246  1.0000
