data_image0
_chemical_formula_structural       Sn2CoBr6
_chemical_formula_sum              "Sn2 Co1 Br6"
_cell_length_a       6.985105185418154
_cell_length_b       6.985105260383379
_cell_length_c       6.985105290643343
_cell_angle_alpha    60.00000047457726
_cell_angle_beta     59.9999989417434
_cell_angle_gamma    60.00000059666189

_space_group_name_H-M_alt    "P 1"
_space_group_IT_number       1

loop_
  _space_group_symop_operation_xyz
  'x, y, z'

loop_
  _atom_site_type_symbol
  _atom_site_label
  _atom_site_symmetry_multiplicity
  _atom_site_fract_x
  _atom_site_fract_y
  _atom_site_fract_z
  _atom_site_occupancy
  Sn  Sn1       1.0  0.24999996400230262  0.2500000188930985  0.24999996208815348  1.0000
  Sn  Sn2       1.0  0.7499998309114053  0.7499999374503832  0.7500000694818145  1.0000
  Co  Co1       1.0  8.531034143443172e-08  0.9999999473990094  0.9999999836453239  1.0000
  Br  Br1       1.0  0.24838091785132377  0.2483808492258173  0.7516191494053024  1.0000
  Br  Br2       1.0  0.7516191149411565  0.7516190580234081  0.24838090373343583  1.0000
  Br  Br3       1.0  0.751619088957458  0.24838093488962923  0.24838095133650973  1.0000
  Br  Br4       1.0  0.2483809557876022  0.7516191547096989  0.7516191077273586  1.0000
  Br  Br5       1.0  0.24838096553449468  0.7516190992723821  0.2483808265331698  1.0000
  Br  Br6       1.0  0.7516190719134762  0.24838099734040972  0.7516190494254524  1.0000
