data_image0
_chemical_formula_structural       Sn2CaCl6
_chemical_formula_sum              "Sn2 Ca1 Cl6"
_cell_length_a       6.879590335108903
_cell_length_b       6.879590336321032
_cell_length_c       6.879590707783494
_cell_angle_alpha    59.999998505669545
_cell_angle_beta     59.99999912164697
_cell_angle_gamma    59.99999797239581

_space_group_name_H-M_alt    "P 1"
_space_group_IT_number       1

loop_
  _space_group_symop_operation_xyz
  'x, y, z'

loop_
  _atom_site_type_symbol
  _atom_site_label
  _atom_site_symmetry_multiplicity
  _atom_site_fract_x
  _atom_site_fract_y
  _atom_site_fract_z
  _atom_site_occupancy
  Sn  Sn1       1.0  0.24999996753415016  0.24999992216443231  0.2500000917482909  1.0000
  Sn  Sn2       1.0  0.7500000358043959  0.75000008693982  0.7499998972488563  1.0000
  Ca  Ca1       1.0  2.8827521611389726e-09  0.999999966175089  4.454257625139163e-08  1.0000
  Cl  Cl1       1.0  0.26281736135327527  0.2628173663241175  0.73718264323846  1.0000
  Cl  Cl2       1.0  0.7371826803683795  0.737182683726079  0.2628173715050292  1.0000
  Cl  Cl3       1.0  0.7371826172205622  0.2628173940692302  0.26281739177190366  1.0000
  Cl  Cl4       1.0  0.2628173322041533  0.7371826257165736  0.737182595584185  1.0000
  Cl  Cl5       1.0  0.2628173350196352  0.7371826293455562  0.2628173970156975  1.0000
  Cl  Cl6       1.0  0.7371826670651948  0.2628173281312005  0.7371825675469357  1.0000
