data_image0
_chemical_formula_structural       Sn2CrCl6
_chemical_formula_sum              "Sn2 Cr1 Cl6"
_cell_length_a       6.638992073860146
_cell_length_b       6.638991751430253
_cell_length_c       6.638992006139986
_cell_angle_alpha    59.99999844103538
_cell_angle_beta     59.999998409085755
_cell_angle_gamma    59.99999868448099

_space_group_name_H-M_alt    "P 1"
_space_group_IT_number       1

loop_
  _space_group_symop_operation_xyz
  'x, y, z'

loop_
  _atom_site_type_symbol
  _atom_site_label
  _atom_site_symmetry_multiplicity
  _atom_site_fract_x
  _atom_site_fract_y
  _atom_site_fract_z
  _atom_site_occupancy
  Sn  Sn1       1.0  0.25000002640661906  0.24999997404318072  0.2500000839906286  1.0000
  Sn  Sn2       1.0  0.7499999912193742  0.7499999461116218  0.7500000881682307  1.0000
  Cr  Cr1       1.0  5.8028971717874594e-08  0.9999999667940412  0.9999997149567441  1.0000
  Cl  Cl1       1.0  0.24658402326789827  0.24658404222905972  0.7534159501429616  1.0000
  Cl  Cl2       1.0  0.7534159590089544  0.7534159683197387  0.24658401675564506  1.0000
  Cl  Cl3       1.0  0.7534158633017278  0.24658407379043626  0.2465840804985557  1.0000
  Cl  Cl4       1.0  0.24658395548055215  0.7534161193911304  0.7534160093811977  1.0000
  Cl  Cl5       1.0  0.2465841387052171  0.7534159384200549  0.24658404085813648  1.0000
  Cl  Cl6       1.0  0.7534159990359726  0.24658397620042166  0.7534160062289117  1.0000
