data_image0
_chemical_formula_structural       Sn2CoCl6
_chemical_formula_sum              "Sn2 Co1 Cl6"
_cell_length_a       6.567491247017115
_cell_length_b       6.567490961570701
_cell_length_c       6.567491068888506
_cell_angle_alpha    59.99999923757152
_cell_angle_beta     60.000000641240085
_cell_angle_gamma    59.999999173730515

_space_group_name_H-M_alt    "P 1"
_space_group_IT_number       1

loop_
  _space_group_symop_operation_xyz
  'x, y, z'

loop_
  _atom_site_type_symbol
  _atom_site_label
  _atom_site_symmetry_multiplicity
  _atom_site_fract_x
  _atom_site_fract_y
  _atom_site_fract_z
  _atom_site_occupancy
  Sn  Sn1       1.0  0.24999993030519035  0.24999999974726875  0.2500001277986117  1.0000
  Sn  Sn2       1.0  0.7500001187768933  0.7499999861877902  0.7499997478796165  1.0000
  Co  Co1       1.0  2.5839830338197307e-08  2.797289481478347e-08  0.9999999517765166  1.0000
  Cl  Cl1       1.0  0.24707956477110476  0.2470795672172493  0.7529204485092807  1.0000
  Cl  Cl2       1.0  0.7529204130777408  0.7529203739611775  0.24707970747099925  1.0000
  Cl  Cl3       1.0  0.752920453270793  0.24707955924184036  0.24707954151131029  1.0000
  Cl  Cl4       1.0  0.2470795680883008  0.7529204360175166  0.7529204529971706  1.0000
  Cl  Cl5       1.0  0.24707946831094807  0.7529204069628155  0.24707960112517  1.0000
  Cl  Cl6       1.0  0.7529204679960191  0.24707965356662911  0.7529203987063761  1.0000
