data_image0
_chemical_formula_structural       Sn2CuI6
_chemical_formula_sum              "Sn2 Cu1 I6"
_cell_length_a       7.442749058138958
_cell_length_b       7.442749085021364
_cell_length_c       7.442749138028207
_cell_angle_alpha    60.00000009060881
_cell_angle_beta     59.99999978415716
_cell_angle_gamma    59.99999975753128

_space_group_name_H-M_alt    "P 1"
_space_group_IT_number       1

loop_
  _space_group_symop_operation_xyz
  'x, y, z'

loop_
  _atom_site_type_symbol
  _atom_site_label
  _atom_site_symmetry_multiplicity
  _atom_site_fract_x
  _atom_site_fract_y
  _atom_site_fract_z
  _atom_site_occupancy
  Sn  Sn1       1.0  0.24999997042223426  0.24999996680015132  0.25000002836987645  1.0000
  Sn  Sn2       1.0  0.7499999471219805  0.7499999185015523  0.7500000406647771  1.0000
  Cu  Cu1       1.0  1.1785066738953122e-08  0.9999999786077924  6.1471599399143e-09  1.0000
  I   I1        1.0  0.2534797794531851  0.2534798486496768  0.7465201884487009  1.0000
  I   I2        1.0  0.7465202143913282  0.7465201847519253  0.2534798221294369  1.0000
  I   I3        1.0  0.7465202132468284  0.2534798362531803  0.25347978580061775  1.0000
  I   I4        1.0  0.25347984365835474  0.746520198793976  0.746520181675692  1.0000
  I   I5        1.0  0.2534798224882888  0.7465202136857078  0.2534797891295391  1.0000
  I   I6        1.0  0.7465201933264737  0.2534798608547548  0.7465201616786633  1.0000
