data_image0
_chemical_formula_structural       Sn2CO6
_chemical_formula_sum              "Sn2 C1 O6"
_cell_length_a       4.751153543497061
_cell_length_b       4.751154488354719
_cell_length_c       4.751153911668771
_cell_angle_alpha    60.00000100691663
_cell_angle_beta     59.999996579079905
_cell_angle_gamma    60.00000204014919

_space_group_name_H-M_alt    "P 1"
_space_group_IT_number       1

loop_
  _space_group_symop_operation_xyz
  'x, y, z'

loop_
  _atom_site_type_symbol
  _atom_site_label
  _atom_site_symmetry_multiplicity
  _atom_site_fract_x
  _atom_site_fract_y
  _atom_site_fract_z
  _atom_site_occupancy
  Sn  Sn1       1.0  0.24999995528197774  0.2500001039657798  0.25000028597601437  1.0000
  Sn  Sn2       1.0  0.7499999204975392  0.7499999948299745  0.7500002587870362  1.0000
  C   C1        1.0  0.9999998891047185  4.201787181187926e-07  3.420797102229489e-07  1.0000
  O   O1        1.0  0.23099645655856638  0.23099632501178916  0.7690034610965192  1.0000
  O   O2        1.0  0.769003252141213  0.7690036990282698  0.23099631006471322  1.0000
  O   O3        1.0  0.7690037953958433  0.2309962951687067  0.23099637073364385  1.0000
  O   O4        1.0  0.23099659749423695  0.7690032803369847  0.7690034846558055  1.0000
  O   O5        1.0  0.23099644297789118  0.7690034516078162  0.23099638420728014  1.0000
  O   O6        1.0  0.7690036180523007  0.23099644869862376  0.7690032663413003  1.0000
