data_image0
_chemical_formula_structural       Sn2CrO6
_chemical_formula_sum              "Sn2 Cr1 O6"
_cell_length_a       5.405750659180553
_cell_length_b       5.405750540956569
_cell_length_c       5.405750532236929
_cell_angle_alpha    60.000000154466164
_cell_angle_beta     59.99999941188585
_cell_angle_gamma    59.99999963697447

_space_group_name_H-M_alt    "P 1"
_space_group_IT_number       1

loop_
  _space_group_symop_operation_xyz
  'x, y, z'

loop_
  _atom_site_type_symbol
  _atom_site_label
  _atom_site_symmetry_multiplicity
  _atom_site_fract_x
  _atom_site_fract_y
  _atom_site_fract_z
  _atom_site_occupancy
  Sn  Sn1       1.0  0.2500001343857902  0.2499999673367355  0.25000002146421957  1.0000
  Sn  Sn2       1.0  0.7500000509444613  0.7499999269321714  0.7499999468560875  1.0000
  Cr  Cr1       1.0  1.899143824985768e-09  0.9999999750780331  0.9999999948624746  1.0000
  O   O1        1.0  0.24255824776755824  0.24255841164966965  0.7574416712605933  1.0000
  O   O2        1.0  0.7574416528373173  0.7574417023856722  0.24255832398954197  1.0000
  O   O3        1.0  0.7574416409976327  0.24255826287436297  0.2425583764269435  1.0000
  O   O4        1.0  0.2425583309413461  0.7574416948322776  0.7574416557708442  1.0000
  O   O5        1.0  0.24255831975082284  0.7574416983834052  0.24255831760098062  1.0000
  O   O6        1.0  0.7574416212244997  0.242558352214203  0.7574417187809075  1.0000
