data_image0
_chemical_formula_structural       Sn2CrTe6
_chemical_formula_sum              "Sn2 Cr1 Te6"
_cell_length_a       7.121325054762542
_cell_length_b       7.121324923432807
_cell_length_c       7.121325044271947
_cell_angle_alpha    60.00000029917369
_cell_angle_beta     59.99999948364951
_cell_angle_gamma    60.000000839826185

_space_group_name_H-M_alt    "P 1"
_space_group_IT_number       1

loop_
  _space_group_symop_operation_xyz
  'x, y, z'

loop_
  _atom_site_type_symbol
  _atom_site_label
  _atom_site_symmetry_multiplicity
  _atom_site_fract_x
  _atom_site_fract_y
  _atom_site_fract_z
  _atom_site_occupancy
  Sn  Sn1       1.0  0.24999998992600603  0.2500000259707191  0.2499999838844394  1.0000
  Sn  Sn2       1.0  0.7499999973121285  0.7499999661233865  0.7499999979933466  1.0000
  Cr  Cr1       1.0  0.9999999799522249  3.095689022842992e-08  0.9999999959496758  1.0000
  Te  Te1       1.0  0.26025716723973136  0.26025716257826786  0.7397428294552275  1.0000
  Te  Te2       1.0  0.7397428538525277  0.7397428398348019  0.26025714859104365  1.0000
  Te  Te3       1.0  0.7397428263852319  0.26025714152773194  0.26025717407203625  1.0000
  Te  Te4       1.0  0.26025718489673183  0.7397428368077564  0.7397428349605039  1.0000
  Te  Te5       1.0  0.26025718924915386  0.7397428173480329  0.2602571865762162  1.0000
  Te  Te6       1.0  0.739742816398411  0.2602571730262464  0.7397428501472547  1.0000
