data_image0
_chemical_formula_structural       Sn2CoTe6
_chemical_formula_sum              "Sn2 Co1 Te6"
_cell_length_a       7.053464283097084
_cell_length_b       7.053464389216422
_cell_length_c       7.0534643406139494
_cell_angle_alpha    59.99999892075226
_cell_angle_beta     59.99999890422218
_cell_angle_gamma    59.99999964240023

_space_group_name_H-M_alt    "P 1"
_space_group_IT_number       1

loop_
  _space_group_symop_operation_xyz
  'x, y, z'

loop_
  _atom_site_type_symbol
  _atom_site_label
  _atom_site_symmetry_multiplicity
  _atom_site_fract_x
  _atom_site_fract_y
  _atom_site_fract_z
  _atom_site_occupancy
  Sn  Sn1       1.0  0.24999999143234167  0.2500000245045488  0.2499999666914398  1.0000
  Sn  Sn2       1.0  0.7500000184496877  0.7499999901677159  0.7500000302549112  1.0000
  Co  Co1       1.0  0.9999999870850221  1.910010823380821e-08  4.085746903468254e-08  1.0000
  Te  Te1       1.0  0.24673342505897553  0.24673342775925888  0.7532665893744582  1.0000
  Te  Te2       1.0  0.7532665663358121  0.753266583440259  0.24673339870348474  1.0000
  Te  Te3       1.0  0.75326655344296  0.24673343312316218  0.24673342100683743  1.0000
  Te  Te4       1.0  0.24673346379882094  0.7532665103577885  0.7532665624875183  1.0000
  Te  Te5       1.0  0.24673345014881104  0.7532665197555662  0.24673346293937037  1.0000
  Te  Te6       1.0  0.7532665428830454  0.24673349144395143  0.7532665299910104  1.0000
