data_image0
_chemical_formula_structural       Sn2CrI6
_chemical_formula_sum              "Sn2 Cr1 I6"
_cell_length_a       7.598877543699355
_cell_length_b       7.5988776426086355
_cell_length_c       7.59887781088406
_cell_angle_alpha    59.99999852867023
_cell_angle_beta     59.999999300825316
_cell_angle_gamma    60.00000119741259

_space_group_name_H-M_alt    "P 1"
_space_group_IT_number       1

loop_
  _space_group_symop_operation_xyz
  'x, y, z'

loop_
  _atom_site_type_symbol
  _atom_site_label
  _atom_site_symmetry_multiplicity
  _atom_site_fract_x
  _atom_site_fract_y
  _atom_site_fract_z
  _atom_site_occupancy
  Sn  Sn1       1.0  0.24999994089362515  0.25000002394169185  0.24999995449566095  1.0000
  Sn  Sn2       1.0  0.7500000512453889  0.7500000653781  0.7499999972011993  1.0000
  Cr  Cr1       1.0  0.9999999590954908  0.9999999403654545  8.185313842978957e-08  1.0000
  I   I1        1.0  0.2477197513105257  0.24771976792309847  0.7522802950236225  1.0000
  I   I2        1.0  0.7522803089641121  0.7522802811030835  0.24771968223174493  1.0000
  I   I3        1.0  0.752280255066251  0.24771974067660635  0.24771977482910576  1.0000
  I   I4        1.0  0.24771975147318026  0.7522801777982753  0.7522802314022938  1.0000
  I   I5        1.0  0.2477197473634817  0.7522802651075292  0.24771976845867796  1.0000
  I   I6        1.0  0.7522802287371614  0.24771973556631835  0.7522802118926323  1.0000
