data_image0
_chemical_formula_structural       Sn2CrS6
_chemical_formula_sum              "Sn2 Cr1 S6"
_cell_length_a       6.195539607772748
_cell_length_b       6.195539554389924
_cell_length_c       6.1955395735622165
_cell_angle_alpha    59.9999999434087
_cell_angle_beta     59.99999990329648
_cell_angle_gamma    59.99999998703846

_space_group_name_H-M_alt    "P 1"
_space_group_IT_number       1

loop_
  _space_group_symop_operation_xyz
  'x, y, z'

loop_
  _atom_site_type_symbol
  _atom_site_label
  _atom_site_symmetry_multiplicity
  _atom_site_fract_x
  _atom_site_fract_y
  _atom_site_fract_z
  _atom_site_occupancy
  Sn  Sn1       1.0  0.2500000066570245  0.25000000037048664  0.2499999965644588  1.0000
  Sn  Sn2       1.0  0.7499999957421797  0.7500000011114599  0.7500000114922099  1.0000
  Cr  Cr1       1.0  1.6454078568460405e-08  0.999999984185463  9.364615705996747e-09  1.0000
  S   S1        1.0  0.2550001482887742  0.2550001446268183  0.7449998557452053  1.0000
  S   S2        1.0  0.7449998423819808  0.7449998529014938  0.25500015531031156  1.0000
  S   S3        1.0  0.744999850711638  0.25500014718419806  0.2550001435355648  1.0000
  S   S4        1.0  0.25500015180062235  0.744999848367297  0.7449998496750927  1.0000
  S   S5        1.0  0.25500015321106134  0.7449998594566659  0.2550001325114683  1.0000
  S   S6        1.0  0.7449998388712306  0.2550001617934518  0.7449998401523467  1.0000
