data_image0
_chemical_formula_structural       Sn2CoF6
_chemical_formula_sum              "Sn2 Co1 F6"
_cell_length_a       5.472510075823333
_cell_length_b       5.472509990103126
_cell_length_c       5.4725101118621
_cell_angle_alpha    60.0000003676018
_cell_angle_beta     59.999998823617815
_cell_angle_gamma    60.000000305848964

_space_group_name_H-M_alt    "P 1"
_space_group_IT_number       1

loop_
  _space_group_symop_operation_xyz
  'x, y, z'

loop_
  _atom_site_type_symbol
  _atom_site_label
  _atom_site_symmetry_multiplicity
  _atom_site_fract_x
  _atom_site_fract_y
  _atom_site_fract_z
  _atom_site_occupancy
  Sn  Sn1       1.0  0.25000003504810087  0.24999999614830565  0.2499999927286558  1.0000
  Sn  Sn2       1.0  0.74999996213224  0.7500000376808008  0.7500000433472087  1.0000
  Co  Co1       1.0  3.606390141025344e-08  0.9999998791482836  4.0566591211764636e-08  1.0000
  F   F1        1.0  0.24435386342701454  0.24435386121190628  0.7556461065438039  1.0000
  F   F2        1.0  0.7556461969473453  0.7556461412852726  0.2443538167533172  1.0000
  F   F3        1.0  0.7556460446676528  0.2443539700948389  0.24435393951542322  1.0000
  F   F4        1.0  0.24435392209867415  0.7556460726862453  0.755646039680803  1.0000
  F   F5        1.0  0.24435387837869157  0.7556461047216034  0.24435395417823158  1.0000
  F   F6        1.0  0.7556460686516218  0.24435394029747576  0.7556460465582095  1.0000
