data_image0
_chemical_formula_structural       Sn2CBr6
_chemical_formula_sum              "Sn2 C1 Br6"
_cell_length_a       7.003133263376094
_cell_length_b       7.0031331237351395
_cell_length_c       7.003133118268103
_cell_angle_alpha    60.000002504138074
_cell_angle_beta     60.0000022849683
_cell_angle_gamma    60.00000023976741

_space_group_name_H-M_alt    "P 1"
_space_group_IT_number       1

loop_
  _space_group_symop_operation_xyz
  'x, y, z'

loop_
  _atom_site_type_symbol
  _atom_site_label
  _atom_site_symmetry_multiplicity
  _atom_site_fract_x
  _atom_site_fract_y
  _atom_site_fract_z
  _atom_site_occupancy
  Sn  Sn1       1.0  0.25000005815431564  0.249999948553008  0.24999993165003837  1.0000
  Sn  Sn2       1.0  0.7500001069205493  0.7500002461463005  0.7499996513245992  1.0000
  C   C1        1.0  0.9999999965366171  0.9999999510321252  9.904017532125083e-08  1.0000
  Br  Br1       1.0  0.24993889792762267  0.24993886865544332  0.7500611317981445  1.0000
  Br  Br2       1.0  0.7500610887932111  0.7500611389166321  0.2499389452063615  1.0000
  Br  Br3       1.0  0.7500611412185214  0.24993871895355324  0.2499389597777427  1.0000
  Br  Br4       1.0  0.24993882939983192  0.7500611242263652  0.7500611817712973  1.0000
  Br  Br5       1.0  0.24993877453245275  0.7500611953944911  0.2499389039379857  1.0000
  Br  Br6       1.0  0.7500610995847276  0.24993880867987928  0.7500611954188905  1.0000
