data_image0
_chemical_formula_structural       Sn2CaI6
_chemical_formula_sum              "Sn2 Ca1 I6"
_cell_length_a       7.93105501965694
_cell_length_b       7.931054847260975
_cell_length_c       7.931054819601028
_cell_angle_alpha    59.99999999017194
_cell_angle_beta     60.00000050161692
_cell_angle_gamma    59.9999983373528

_space_group_name_H-M_alt    "P 1"
_space_group_IT_number       1

loop_
  _space_group_symop_operation_xyz
  'x, y, z'

loop_
  _atom_site_type_symbol
  _atom_site_label
  _atom_site_symmetry_multiplicity
  _atom_site_fract_x
  _atom_site_fract_y
  _atom_site_fract_z
  _atom_site_occupancy
  Sn  Sn1       1.0  0.2500001351363744  0.25000003037324225  0.2499999189267545  1.0000
  Sn  Sn2       1.0  0.7499999796211391  0.7499998965455463  0.7500000682222134  1.0000
  Ca  Ca1       1.0  0.9999999538217407  2.9340552780667112e-08  0.999999984462393  1.0000
  I   I1        1.0  0.26704736645228344  0.26704746368129345  0.7329525991895846  1.0000
  I   I2        1.0  0.7329526005781773  0.7329526006748202  0.2670473628434554  1.0000
  I   I3        1.0  0.7329525325990687  0.26704747958435593  0.2670473768541855  1.0000
  I   I4        1.0  0.267047422814315  0.732952532267612  0.7329526336307282  1.0000
  I   I5        1.0  0.2670474496322102  0.7329525045466273  0.2670474179352634  1.0000
  I   I6        1.0  0.7329525521360658  0.2670474686993505  0.7329526391098526  1.0000
