data_image0
_chemical_formula_structural       Sn2CoSe6
_chemical_formula_sum              "Sn2 Co1 Se6"
_cell_length_a       6.583018896570006
_cell_length_b       6.583018885600834
_cell_length_c       6.583018868850023
_cell_angle_alpha    59.99999885503368
_cell_angle_beta     59.99999893072031
_cell_angle_gamma    59.99999903128946

_space_group_name_H-M_alt    "P 1"
_space_group_IT_number       1

loop_
  _space_group_symop_operation_xyz
  'x, y, z'

loop_
  _atom_site_type_symbol
  _atom_site_label
  _atom_site_symmetry_multiplicity
  _atom_site_fract_x
  _atom_site_fract_y
  _atom_site_fract_z
  _atom_site_occupancy
  Sn  Sn1       1.0  0.249999996905158  0.2500000866481194  0.24999998484568048  1.0000
  Sn  Sn2       1.0  0.7499999900103076  0.7500000515727441  0.7500000286942355  1.0000
  Co  Co1       1.0  2.5371531803873055e-08  1.8604608990655362e-08  0.9999999126923534  1.0000
  Se  Se1       1.0  0.2488500459125187  0.24885003065497305  0.7511499299632979  1.0000
  Se  Se2       1.0  0.7511499290286142  0.7511499382639547  0.2488500769949204  1.0000
  Se  Se3       1.0  0.7511499368319277  0.2488500356439157  0.24885006991855324  1.0000
  Se  Se4       1.0  0.24885004544464706  0.7511499165308642  0.7511499599727368  1.0000
  Se  Se5       1.0  0.24885006248472813  0.7511499100731057  0.24885006524230457  1.0000
  Se  Se6       1.0  0.7511499670633016  0.24885001605522183  0.7511499737842626  1.0000
