data_image0
_chemical_formula_structural       Sn2CdBr6
_chemical_formula_sum              "Sn2 Cd1 Br6"
_cell_length_a       7.159541692663107
_cell_length_b       7.159541671295152
_cell_length_c       7.159541670387653
_cell_angle_alpha    59.99999868166307
_cell_angle_beta     59.9999988924489
_cell_angle_gamma    59.99999857268006

_space_group_name_H-M_alt    "P 1"
_space_group_IT_number       1

loop_
  _space_group_symop_operation_xyz
  'x, y, z'

loop_
  _atom_site_type_symbol
  _atom_site_label
  _atom_site_symmetry_multiplicity
  _atom_site_fract_x
  _atom_site_fract_y
  _atom_site_fract_z
  _atom_site_occupancy
  Sn  Sn1       1.0  0.24999993235353882  0.2499999538279549  0.2500000974903602  1.0000
  Sn  Sn2       1.0  0.750000010681428  0.7500000770253916  0.7500002119767027  1.0000
  Cd  Cd1       1.0  0.9999999944935104  6.842588519728103e-09  0.9999999755874138  1.0000
  Br  Br1       1.0  0.262243302334909  0.26224324285433415  0.7377567335049695  1.0000
  Br  Br2       1.0  0.7377567707845255  0.7377567606286628  0.2622431139642221  1.0000
  Br  Br3       1.0  0.7377567727311463  0.26224327153278887  0.2622432211031796  1.0000
  Br  Br4       1.0  0.2622431577758641  0.7377567678737966  0.7377567425636163  1.0000
  Br  Br5       1.0  0.26224330851172367  0.7377567540107938  0.26224320179402455  1.0000
  Br  Br6       1.0  0.7377567522279421  0.2622431656504971  0.7377567077432803  1.0000
