data_image0
_chemical_formula_structural       Sn2CdI6
_chemical_formula_sum              "Sn2 Cd1 I6"
_cell_length_a       7.769705044124806
_cell_length_b       7.769704858511549
_cell_length_c       7.769705143913547
_cell_angle_alpha    59.99999855365061
_cell_angle_beta     59.99999885822917
_cell_angle_gamma    60.000000718582726

_space_group_name_H-M_alt    "P 1"
_space_group_IT_number       1

loop_
  _space_group_symop_operation_xyz
  'x, y, z'

loop_
  _atom_site_type_symbol
  _atom_site_label
  _atom_site_symmetry_multiplicity
  _atom_site_fract_x
  _atom_site_fract_y
  _atom_site_fract_z
  _atom_site_occupancy
  Sn  Sn1       1.0  0.2500000751053847  0.24999982661982686  0.25000001491786594  1.0000
  Sn  Sn2       1.0  0.7499999396464525  0.7500001986559759  0.7500000598592244  1.0000
  Cd  Cd1       1.0  5.869946102391436e-09  0.9999999779316865  6.859053972472894e-08  1.0000
  I   I1        1.0  0.2632472863650105  0.26324719132229074  0.7367527626274522  1.0000
  I   I2        1.0  0.7367527507848077  0.7367528024273501  0.2632471815734651  1.0000
  I   I3        1.0  0.7367527434837832  0.2632471895725207  0.26324730676842545  1.0000
  I   I4        1.0  0.26324724096025265  0.7367527884140377  0.7367526587964233  1.0000
  I   I5        1.0  0.2632472577392365  0.7367528419670204  0.26324723161669417  1.0000
  I   I6        1.0  0.7367527001033315  0.2632471801561646  0.7367527148841742  1.0000
