data_image0
_chemical_formula_structural       Sn2CF6
_chemical_formula_sum              "Sn2 C1 F6"
_cell_length_a       5.695498968635018
_cell_length_b       5.695498296223449
_cell_length_c       5.695498317047665
_cell_angle_alpha    60.000001881758415
_cell_angle_beta     60.000001027371965
_cell_angle_gamma    59.999993381992

_space_group_name_H-M_alt    "P 1"
_space_group_IT_number       1

loop_
  _space_group_symop_operation_xyz
  'x, y, z'

loop_
  _atom_site_type_symbol
  _atom_site_label
  _atom_site_symmetry_multiplicity
  _atom_site_fract_x
  _atom_site_fract_y
  _atom_site_fract_z
  _atom_site_occupancy
  Sn  Sn1       1.0  0.2500001350273469  0.24999995456816534  0.24999996457076484  1.0000
  Sn  Sn2       1.0  0.7500000049269409  0.749999938967595  0.7500000069966711  1.0000
  C   C1        1.0  1.8905870492951115e-09  0.99999961723351  2.7647080400153725e-07  1.0000
  F   F1        1.0  0.20823802314907797  0.20823809375082147  0.7917619566831676  1.0000
  F   F2        1.0  0.7917624109945344  0.791762249212993  0.20823766063330595  1.0000
  F   F3        1.0  0.7917619876378539  0.20823798565932966  0.20823800403166698  1.0000
  F   F4        1.0  0.2082378165248162  0.7917620455003649  0.7917622123487473  1.0000
  F   F5        1.0  0.20823776256652182  0.7917621100377439  0.20823791910493364  1.0000
  F   F6        1.0  0.7917619410241586  0.20823798563315174  0.7917619465936278  1.0000
