data_image0
_chemical_formula_structural       Sn2CdCl6
_chemical_formula_sum              "Sn2 Cd1 Cl6"
_cell_length_a       6.787930868066202
_cell_length_b       6.787930910590357
_cell_length_c       6.787930828524454
_cell_angle_alpha    60.000000931115686
_cell_angle_beta     60.00000007652584
_cell_angle_gamma    60.000000146671844

_space_group_name_H-M_alt    "P 1"
_space_group_IT_number       1

loop_
  _space_group_symop_operation_xyz
  'x, y, z'

loop_
  _atom_site_type_symbol
  _atom_site_label
  _atom_site_symmetry_multiplicity
  _atom_site_fract_x
  _atom_site_fract_y
  _atom_site_fract_z
  _atom_site_occupancy
  Sn  Sn1       1.0  0.2499999284403848  0.2500002206207181  0.2499999654021252  1.0000
  Sn  Sn2       1.0  0.749999992402643  0.7500000610309959  0.7500000400459002  1.0000
  Cd  Cd1       1.0  0.9999999922167853  0.9999999621097468  2.2836733794549567e-08  1.0000
  Cl  Cl1       1.0  0.2597093214422955  0.25970932150501796  0.7402906810314842  1.0000
  Cl  Cl2       1.0  0.7402907684857404  0.7402906570246691  0.2597092500075621  1.0000
  Cl  Cl3       1.0  0.7402907416285992  0.25970922195353696  0.2597092997170421  1.0000
  Cl  Cl4       1.0  0.259709258795244  0.7402906627526668  0.7402907436106839  1.0000
  Cl  Cl5       1.0  0.25970930963943745  0.7402906343876497  0.25970925439084325  1.0000
  Cl  Cl6       1.0  0.7402906946848656  0.25970925392714905  0.7402907336202507  1.0000
