data_image0
_chemical_formula_structural       Sn2CrBr6
_chemical_formula_sum              "Sn2 Cr1 Br6"
_cell_length_a       7.056120933193908
_cell_length_b       7.056120821131514
_cell_length_c       7.056121146067659
_cell_angle_alpha    59.99999859467237
_cell_angle_beta     59.999998258656895
_cell_angle_gamma    59.99999914790438

_space_group_name_H-M_alt    "P 1"
_space_group_IT_number       1

loop_
  _space_group_symop_operation_xyz
  'x, y, z'

loop_
  _atom_site_type_symbol
  _atom_site_label
  _atom_site_symmetry_multiplicity
  _atom_site_fract_x
  _atom_site_fract_y
  _atom_site_fract_z
  _atom_site_occupancy
  Sn  Sn1       1.0  0.24999989162400615  0.2500000742396216  0.250000018291091  1.0000
  Sn  Sn2       1.0  0.7499999011705598  0.7499999120250146  0.7500000148727908  1.0000
  Cr  Cr1       1.0  0.9999998477929019  2.9507236289434417e-08  0.9999999989927257  1.0000
  Br  Br1       1.0  0.24752107857509614  0.2475210639504112  0.7524789352107463  1.0000
  Br  Br2       1.0  0.7524790804699574  0.7524789674429431  0.24752102264677942  1.0000
  Br  Br3       1.0  0.7524790034916802  0.24752104785585546  0.24752102059790448  1.0000
  Br  Br4       1.0  0.2475210847236492  0.7524789505588214  0.7524789594024285  1.0000
  Br  Br5       1.0  0.24752111061132423  0.7524788842432675  0.24752108897900732  1.0000
  Br  Br6       1.0  0.7524790095900062  0.24752106730697407  0.7524789438112379  1.0000
