data_image0
_chemical_formula_structural       Sn2CaBr6
_chemical_formula_sum              "Sn2 Ca1 Br6"
_cell_length_a       7.2577742550946605
_cell_length_b       7.257774181912017
_cell_length_c       7.257774254773405
_cell_angle_alpha    59.99999864406619
_cell_angle_beta     59.99999995794295
_cell_angle_gamma    59.99999995928992

_space_group_name_H-M_alt    "P 1"
_space_group_IT_number       1

loop_
  _space_group_symop_operation_xyz
  'x, y, z'

loop_
  _atom_site_type_symbol
  _atom_site_label
  _atom_site_symmetry_multiplicity
  _atom_site_fract_x
  _atom_site_fract_y
  _atom_site_fract_z
  _atom_site_occupancy
  Sn  Sn1       1.0  0.25000007239633554  0.24999989850905774  0.24999999635672646  1.0000
  Sn  Sn2       1.0  0.7499999652452979  0.7500000313384344  0.7500000463403679  1.0000
  Ca  Ca1       1.0  0.9999999929136628  0.999999954437667  7.4548486249619e-08  1.0000
  Br  Br1       1.0  0.2644236989437589  0.2644236786123672  0.7355763332322315  1.0000
  Br  Br2       1.0  0.7355763181253047  0.7355763845471346  0.26442363242764894  1.0000
  Br  Br3       1.0  0.7355763060205744  0.26442369407718697  0.2644237018519502  1.0000
  Br  Br4       1.0  0.2644237153885701  0.735576308332539  0.7355762410329613  1.0000
  Br  Br5       1.0  0.2644236579841253  0.7355763761607779  0.26442366893721536  1.0000
  Br  Br6       1.0  0.7355762735578201  0.264423666748798  0.7355763124096993  1.0000
