data_image0
_chemical_formula_structural       Sn2CoO6
_chemical_formula_sum              "Sn2 Co1 O6"
_cell_length_a       5.305906041407022
_cell_length_b       5.305906402760779
_cell_length_c       5.305906038728109
_cell_angle_alpha    59.999998583130186
_cell_angle_beta     59.99999978833697
_cell_angle_gamma    59.99999970691379

_space_group_name_H-M_alt    "P 1"
_space_group_IT_number       1

loop_
  _space_group_symop_operation_xyz
  'x, y, z'

loop_
  _atom_site_type_symbol
  _atom_site_label
  _atom_site_symmetry_multiplicity
  _atom_site_fract_x
  _atom_site_fract_y
  _atom_site_fract_z
  _atom_site_occupancy
  Sn  Sn1       1.0  0.2500000961985723  0.249999991818922  0.24999992421358616  1.0000
  Sn  Sn2       1.0  0.7499999595851519  0.7499999962311674  0.7500000323016063  1.0000
  Co  Co1       1.0  0.9999999814471496  0.999999983842131  1.547066790010536e-08  1.0000
  O   O1        1.0  0.240147569939102  0.24014770604677504  0.759852419221278  1.0000
  O   O2        1.0  0.7598523516635755  0.7598523189355867  0.24014761795806905  1.0000
  O   O3        1.0  0.7598523036322508  0.2401476157531314  0.24014770008073466  1.0000
  O   O4        1.0  0.24014758814026485  0.7598524138457643  0.7598523553595031  1.0000
  O   O5        1.0  0.24014773645480864  0.7598522989281729  0.2401476341538598  1.0000
  O   O6        1.0  0.7598524127985253  0.2401476568061769  0.7598523030925518  1.0000
