data_image0
_chemical_formula_structural       Sn2FeS6
_chemical_formula_sum              "Sn2 Fe1 S6"
_cell_length_a       6.27425611019251
_cell_length_b       6.274255967716118
_cell_length_c       6.274256045618157
_cell_angle_alpha    59.9999994927666
_cell_angle_beta     59.999999161613594
_cell_angle_gamma    59.9999996036189

_space_group_name_H-M_alt    "P 1"
_space_group_IT_number       1

loop_
  _space_group_symop_operation_xyz
  'x, y, z'

loop_
  _atom_site_type_symbol
  _atom_site_label
  _atom_site_symmetry_multiplicity
  _atom_site_fract_x
  _atom_site_fract_y
  _atom_site_fract_z
  _atom_site_occupancy
  Sn  Sn1       1.0  0.24999998025951292  0.24999996593429927  0.250000035202463  1.0000
  Sn  Sn2       1.0  0.7500000006912545  0.7500000051637845  0.7500000124077003  1.0000
  Fe  Fe1       1.0  0.9999999693450853  3.1232257707493207e-08  0.9999999758041118  1.0000
  S   S1        1.0  0.2446095796149359  0.24460954339742222  0.7553903969891821  1.0000
  S   S2        1.0  0.7553904500404646  0.7553904472208227  0.24460952087971624  1.0000
  S   S3        1.0  0.7553903916705708  0.24460964620124706  0.24460953201134794  1.0000
  S   S4        1.0  0.24460957297508723  0.7553904400657877  0.7553904789174104  1.0000
  S   S5        1.0  0.24460963064457256  0.75539036807674  0.24460958285948414  1.0000
  S   S6        1.0  0.7553904248144324  0.2446095561729573  0.7553904668588975  1.0000
