data_image0
_chemical_formula_structural       Sn2FeTe6
_chemical_formula_sum              "Sn2 Fe1 Te6"
_cell_length_a       7.099029242093878
_cell_length_b       7.099029109902809
_cell_length_c       7.099029065178107
_cell_angle_alpha    60.00000039152667
_cell_angle_beta     59.99999988180552
_cell_angle_gamma    59.99999918786257

_space_group_name_H-M_alt    "P 1"
_space_group_IT_number       1

loop_
  _space_group_symop_operation_xyz
  'x, y, z'

loop_
  _atom_site_type_symbol
  _atom_site_label
  _atom_site_symmetry_multiplicity
  _atom_site_fract_x
  _atom_site_fract_y
  _atom_site_fract_z
  _atom_site_occupancy
  Sn  Sn1       1.0  0.25000001678247824  0.24999998905852885  0.24999999950582036  1.0000
  Sn  Sn2       1.0  0.7500000069715013  0.7500000241081338  0.7499999804700079  1.0000
  Fe  Fe1       1.0  0.9999999556712487  5.003163249049859e-08  2.7831331556377895e-09  1.0000
  Te  Te1       1.0  0.24046039735601235  0.2404604106235596  0.7595395685450763  1.0000
  Te  Te2       1.0  0.7595396329042121  0.7595396025431029  0.2404603884566228  1.0000
  Te  Te3       1.0  0.7595396399248268  0.2404603344233331  0.2404603596832942  1.0000
  Te  Te4       1.0  0.24046035371383054  0.7595396373378411  0.759539641966506  1.0000
  Te  Te5       1.0  0.2404603646148146  0.7595395999068708  0.2404604267669585  1.0000
  Te  Te6       1.0  0.7595396303713298  0.24046035805247395  0.7595396290038866  1.0000
