data_image0
_chemical_formula_structural       Sn2FeCl6
_chemical_formula_sum              "Sn2 Fe1 Cl6"
_cell_length_a       6.59608121385019
_cell_length_b       6.596081427857621
_cell_length_c       6.596080954659841
_cell_angle_alpha    60.00000438895839
_cell_angle_beta     60.00000222753807
_cell_angle_gamma    60.00000196027912

_space_group_name_H-M_alt    "P 1"
_space_group_IT_number       1

loop_
  _space_group_symop_operation_xyz
  'x, y, z'

loop_
  _atom_site_type_symbol
  _atom_site_label
  _atom_site_symmetry_multiplicity
  _atom_site_fract_x
  _atom_site_fract_y
  _atom_site_fract_z
  _atom_site_occupancy
  Sn  Sn1       1.0  0.24999998564408557  0.24999988830772593  0.2500000644421599  1.0000
  Sn  Sn2       1.0  0.7500000174531705  0.7500000715572048  0.7500000810331551  1.0000
  Fe  Fe1       1.0  0.9999999036266931  1.5782599602341428e-07  1.3300724494669355e-07  1.0000
  Cl  Cl1       1.0  0.24395221414506757  0.24395217502756608  0.7560477904254416  1.0000
  Cl  Cl2       1.0  0.7560477627116224  0.7560477532721642  0.24395225205625473  1.0000
  Cl  Cl3       1.0  0.7560479526832258  0.24395210217019536  0.24395202883349704  1.0000
  Cl  Cl4       1.0  0.24395219378611024  0.7560478057049881  0.756047710130338  1.0000
  Cl  Cl5       1.0  0.2439521747956465  0.7560477957976725  0.243952169170115  1.0000
  Cl  Cl6       1.0  0.7560478236141197  0.24395225690607353  0.7560477427230714  1.0000
