data_image0
_chemical_formula_structural       Sn2FeI6
_chemical_formula_sum              "Sn2 Fe1 I6"
_cell_length_a       7.5040160623850864
_cell_length_b       7.50401583762315
_cell_length_c       7.504015800679427
_cell_angle_alpha    60.0000010429402
_cell_angle_beta     59.999999705334325
_cell_angle_gamma    60.000000446684865

_space_group_name_H-M_alt    "P 1"
_space_group_IT_number       1

loop_
  _space_group_symop_operation_xyz
  'x, y, z'

loop_
  _atom_site_type_symbol
  _atom_site_label
  _atom_site_symmetry_multiplicity
  _atom_site_fract_x
  _atom_site_fract_y
  _atom_site_fract_z
  _atom_site_occupancy
  Sn  Sn1       1.0  0.25000002028118334  0.2500000083503658  0.24999998723055233  1.0000
  Sn  Sn2       1.0  0.7499999713597704  0.7500001180818922  0.7499998812935832  1.0000
  Fe  Fe1       1.0  9.013951200064321e-10  6.528476492039557e-09  0.9999999669674288  1.0000
  I   I1        1.0  0.23350204502853975  0.23350192476149298  0.766498015344271  1.0000
  I   I2        1.0  0.7664979638377462  0.7664979976558624  0.2335020598473308  1.0000
  I   I3        1.0  0.7664979913023409  0.23350195122839776  0.2335020315153021  1.0000
  I   I4        1.0  0.23350204597663637  0.76649798751015  0.7664980159788785  1.0000
  I   I5        1.0  0.23350197067010886  0.7664980151821317  0.2335019819203322  1.0000
  I   I6        1.0  0.7664979961504631  0.23350198720906556  0.7664980596483888  1.0000
