data_image0
_chemical_formula_structural       Sn2GeI6
_chemical_formula_sum              "Sn2 Ge1 I6"
_cell_length_a       7.7149632653383335
_cell_length_b       7.714963235399138
_cell_length_c       7.714963218338028
_cell_angle_alpha    59.99999935861067
_cell_angle_beta     60.0000001534009
_cell_angle_gamma    59.99999952502352

_space_group_name_H-M_alt    "P 1"
_space_group_IT_number       1

loop_
  _space_group_symop_operation_xyz
  'x, y, z'

loop_
  _atom_site_type_symbol
  _atom_site_label
  _atom_site_symmetry_multiplicity
  _atom_site_fract_x
  _atom_site_fract_y
  _atom_site_fract_z
  _atom_site_occupancy
  Sn  Sn1       1.0  0.25000012096741764  0.24999993971979684  0.24999989444074028  1.0000
  Sn  Sn2       1.0  0.7500000906657149  0.7499999937836  0.7500000069190655  1.0000
  Ge  Ge1       1.0  1.118766280482399e-08  0.9999999888875503  0.9999999947776637  1.0000
  I   I1        1.0  0.2593991161919859  0.2593991236063078  0.7406008840058662  1.0000
  I   I2        1.0  0.7406008067564571  0.7406009575339225  0.2593991138015162  1.0000
  I   I3        1.0  0.7406008524805415  0.25939908995568767  0.25939914985468365  1.0000
  I   I4        1.0  0.25939908390974364  0.7406008879975087  0.7406008967138425  1.0000
  I   I5        1.0  0.25939908866263534  0.7406009283201803  0.2593991360814826  1.0000
  I   I6        1.0  0.7406008279825684  0.2593990909078293  0.7406009269420092  1.0000
