data_image0
_chemical_formula_structural       Sn2GeS6
_chemical_formula_sum              "Sn2 Ge1 S6"
_cell_length_a       6.453489264865926
_cell_length_b       6.453489238956801
_cell_length_c       6.453489182601805
_cell_angle_alpha    60.00000005269078
_cell_angle_beta     60.00000057993581
_cell_angle_gamma    59.99999970682104

_space_group_name_H-M_alt    "P 1"
_space_group_IT_number       1

loop_
  _space_group_symop_operation_xyz
  'x, y, z'

loop_
  _atom_site_type_symbol
  _atom_site_label
  _atom_site_symmetry_multiplicity
  _atom_site_fract_x
  _atom_site_fract_y
  _atom_site_fract_z
  _atom_site_occupancy
  Sn  Sn1       1.0  0.2500000745737518  0.25000001595279575  0.24999989395550656  1.0000
  Sn  Sn2       1.0  0.7499999407475713  0.7499999681506779  0.7500001219819585  1.0000
  Ge  Ge1       1.0  3.073089413505055e-09  0.9999999639417504  0.9999999947988892  1.0000
  S   S1        1.0  0.25480130587020977  0.2548013334464935  0.745198706130784  1.0000
  S   S2        1.0  0.7451987005574565  0.7451987417515056  0.2548012919494871  1.0000
  S   S3        1.0  0.7451986286929875  0.2548013512831406  0.25480129889441167  1.0000
  S   S4        1.0  0.2548012906033579  0.7451986954478199  0.7451987012012624  1.0000
  S   S5        1.0  0.2548013218182754  0.7451986799738417  0.2548012803263624  1.0000
  S   S6        1.0  0.7451986997391413  0.2548012585823694  0.7451987242757  1.0000
