data_image0
_chemical_formula_structural       Sn2GeO6
_chemical_formula_sum              "Sn2 Ge1 O6"
_cell_length_a       5.247663149024105
_cell_length_b       5.247663264679042
_cell_length_c       5.247663278518649
_cell_angle_alpha    59.999997929354755
_cell_angle_beta     59.999998679923245
_cell_angle_gamma    59.99999807189571

_space_group_name_H-M_alt    "P 1"
_space_group_IT_number       1

loop_
  _space_group_symop_operation_xyz
  'x, y, z'

loop_
  _atom_site_type_symbol
  _atom_site_label
  _atom_site_symmetry_multiplicity
  _atom_site_fract_x
  _atom_site_fract_y
  _atom_site_fract_z
  _atom_site_occupancy
  Sn  Sn1       1.0  0.24999996855839227  0.24999992987978276  0.25000004050600283  1.0000
  Sn  Sn2       1.0  0.7499999138931709  0.7500001280528501  0.7499999653527463  1.0000
  Ge  Ge1       1.0  0.9999999659489474  1.633720443060321e-08  0.9999999859896032  1.0000
  O   O1        1.0  0.2556071203250064  0.25560713952092035  0.7443928865164141  1.0000
  O   O2        1.0  0.7443928931519871  0.744392855396782  0.2556071348829477  1.0000
  O   O3        1.0  0.7443928753756968  0.25560705478313844  0.2556071736736944  1.0000
  O   O4        1.0  0.25560711716502404  0.7443928841212947  0.7443928957284894  1.0000
  O   O5        1.0  0.2556071605453616  0.7443929198535949  0.2556071045215679  1.0000
  O   O6        1.0  0.7443929682643428  0.25560706572856173  0.7443928333894497  1.0000
