data_image0
_chemical_formula_structural       Sn2GeBr6
_chemical_formula_sum              "Sn2 Ge1 Br6"
_cell_length_a       7.139361037429347
_cell_length_b       7.139360944516737
_cell_length_c       7.139360981367081
_cell_angle_alpha    59.99999998306405
_cell_angle_beta     59.999999662012435
_cell_angle_gamma    59.999999695370555

_space_group_name_H-M_alt    "P 1"
_space_group_IT_number       1

loop_
  _space_group_symop_operation_xyz
  'x, y, z'

loop_
  _atom_site_type_symbol
  _atom_site_label
  _atom_site_symmetry_multiplicity
  _atom_site_fract_x
  _atom_site_fract_y
  _atom_site_fract_z
  _atom_site_occupancy
  Sn  Sn1       1.0  0.24999999204786216  0.25000000911316755  0.25000001249182696  1.0000
  Sn  Sn2       1.0  0.7500000485021271  0.7499999364189297  0.7499999010851959  1.0000
  Ge  Ge1       1.0  8.324911192557893e-10  4.1171580125219155e-08  3.50253877506355e-08  1.0000
  Br  Br1       1.0  0.25318719976116105  0.25318721290448637  0.7468127926262264  1.0000
  Br  Br2       1.0  0.7468127567667396  0.7468127566443667  0.2531872980254495  1.0000
  Br  Br3       1.0  0.7468127490849192  0.2531872392268402  0.2531872297496023  1.0000
  Br  Br4       1.0  0.2531872730684793  0.7468127663471448  0.7468127498472785  1.0000
  Br  Br5       1.0  0.253187212577223  0.7468127626560007  0.2531872334898592  1.0000
  Br  Br6       1.0  0.7468127679813776  0.25318727551215187  0.7468127422032232  1.0000
