data_image0
_chemical_formula_structural       Sn2GeTe6
_chemical_formula_sum              "Sn2 Ge1 Te6"
_cell_length_a       7.257579979163413
_cell_length_b       7.257579983388094
_cell_length_c       7.257580011638098
_cell_angle_alpha    60.0000005426355
_cell_angle_beta     60.00000018925624
_cell_angle_gamma    60.000000502889236

_space_group_name_H-M_alt    "P 1"
_space_group_IT_number       1

loop_
  _space_group_symop_operation_xyz
  'x, y, z'

loop_
  _atom_site_type_symbol
  _atom_site_label
  _atom_site_symmetry_multiplicity
  _atom_site_fract_x
  _atom_site_fract_y
  _atom_site_fract_z
  _atom_site_occupancy
  Sn  Sn1       1.0  0.24999996630526358  0.2500000306250178  0.2500000205511379  1.0000
  Sn  Sn2       1.0  0.7500000098713524  0.7500000024354918  0.7500000784528089  1.0000
  Ge  Ge1       1.0  0.9999999907433742  0.9999999848121498  2.0489456451773276e-08  1.0000
  Te  Te1       1.0  0.2705585586459143  0.2705585711401594  0.7294414300543856  1.0000
  Te  Te2       1.0  0.7294414869899333  0.7294414349197265  0.27055846721931937  1.0000
  Te  Te3       1.0  0.729441439827961  0.27055856561411945  0.270558539450008  1.0000
  Te  Te4       1.0  0.27055852101745703  0.7294414370706889  0.7294414625327197  1.0000
  Te  Te5       1.0  0.270558574425563  0.7294414392255252  0.27055852823702803  1.0000
  Te  Te6       1.0  0.7294414522310317  0.27055853308358285  0.7294414560279611  1.0000
