data_image0
_chemical_formula_structural       Sn2HfTe6
_chemical_formula_sum              "Sn2 Hf1 Te6"
_cell_length_a       7.4013263251063615
_cell_length_b       7.401326336975289
_cell_length_c       7.401326306092608
_cell_angle_alpha    59.99999947451735
_cell_angle_beta     60.00000080874839
_cell_angle_gamma    59.99999920487489

_space_group_name_H-M_alt    "P 1"
_space_group_IT_number       1

loop_
  _space_group_symop_operation_xyz
  'x, y, z'

loop_
  _atom_site_type_symbol
  _atom_site_label
  _atom_site_symmetry_multiplicity
  _atom_site_fract_x
  _atom_site_fract_y
  _atom_site_fract_z
  _atom_site_occupancy
  Sn  Sn1       1.0  0.2499999848776592  0.25000001807109773  0.24999999957898988  1.0000
  Sn  Sn2       1.0  0.7500000085452548  0.7499999814036737  0.7500000325056067  1.0000
  Hf  Hf1       1.0  0.9999999309434089  7.611914697868846e-08  3.429977864666566e-08  1.0000
  Te  Te1       1.0  0.2683306637095869  0.2683307328434511  0.7316693091291538  1.0000
  Te  Te2       1.0  0.7316693203363301  0.7316692947623099  0.2683306743962797  1.0000
  Te  Te3       1.0  0.7316693346554157  0.26833063394485757  0.26833066273284534  1.0000
  Te  Te4       1.0  0.2683307266262749  0.7316692976845881  0.7316692612562915  1.0000
  Te  Te5       1.0  0.2683306861423733  0.7316693107107135  0.26833067212192485  1.0000
  Te  Te6       1.0  0.731669338499308  0.26833066063306876  0.7316693530143462  1.0000
