data_image0
_chemical_formula_structural       Sn2HfS6
_chemical_formula_sum              "Sn2 Hf1 S6"
_cell_length_a       6.501765251498525
_cell_length_b       6.501765226817354
_cell_length_c       6.5017650974005505
_cell_angle_alpha    60.000000873830956
_cell_angle_beta     60.000000369144914
_cell_angle_gamma    59.99999951543016

_space_group_name_H-M_alt    "P 1"
_space_group_IT_number       1

loop_
  _space_group_symop_operation_xyz
  'x, y, z'

loop_
  _atom_site_type_symbol
  _atom_site_label
  _atom_site_symmetry_multiplicity
  _atom_site_fract_x
  _atom_site_fract_y
  _atom_site_fract_z
  _atom_site_occupancy
  Sn  Sn1       1.0  0.24999996013781908  0.25000000190056  0.25000000496140196  1.0000
  Sn  Sn2       1.0  0.7499999920139745  0.7499999586088963  0.7500000026249088  1.0000
  Hf  Hf1       1.0  3.049637080900552e-08  1.5069690037392642e-08  0.9999999602984868  1.0000
  S   S1        1.0  0.26654860117705037  0.26654856010936717  0.733451419354731  1.0000
  S   S2        1.0  0.7334514026751429  0.7334514211209131  0.2665486073905476  1.0000
  S   S3        1.0  0.7334514331437589  0.26654854865157374  0.2665485698710965  1.0000
  S   S4        1.0  0.26654855981860726  0.7334514759040667  0.7334514529607665  1.0000
  S   S5        1.0  0.26654858026204864  0.7334514683809564  0.26654852329076517  1.0000
  S   S6        1.0  0.7334514392322874  0.2665485618258175  0.733451448074537  1.0000
