data_image0
_chemical_formula_structural       Sn2HgI6
_chemical_formula_sum              "Sn2 Hg1 I6"
_cell_length_a       7.794413397867424
_cell_length_b       7.79441333267816
_cell_length_c       7.794413471913542
_cell_angle_alpha    60.000000559695664
_cell_angle_beta     60.0000001075288
_cell_angle_gamma    59.99999961724947

_space_group_name_H-M_alt    "P 1"
_space_group_IT_number       1

loop_
  _space_group_symop_operation_xyz
  'x, y, z'

loop_
  _atom_site_type_symbol
  _atom_site_label
  _atom_site_symmetry_multiplicity
  _atom_site_fract_x
  _atom_site_fract_y
  _atom_site_fract_z
  _atom_site_occupancy
  Sn  Sn1       1.0  0.2500001837939514  0.24999977570811946  0.250000018606664  1.0000
  Sn  Sn2       1.0  0.7500000326698919  0.7499999855037368  0.7499998256150163  1.0000
  Hg  Hg1       1.0  0.9999999841534142  0.999999976430333  4.921644015808546e-08  1.0000
  I   I1        1.0  0.26552027319829136  0.26552028635553526  0.7344797346795973  1.0000
  I   I2        1.0  0.7344797031452459  0.7344798441144491  0.2655203503200755  1.0000
  I   I3        1.0  0.7344796970320465  0.26552020222282424  0.265520289675484  1.0000
  I   I4        1.0  0.2655202929911952  0.7344797805439089  0.7344796891349877  1.0000
  I   I5        1.0  0.26552014844310806  0.7344798348842208  0.2655202848625482  1.0000
  I   I6        1.0  0.7344796812218204  0.2655203222980533  0.7344797600486106  1.0000
