data_image0
_chemical_formula_structural       Sn2HgCl6
_chemical_formula_sum              "Sn2 Hg1 Cl6"
_cell_length_a       6.857567847560534
_cell_length_b       6.8575678267616205
_cell_length_c       6.857567840974756
_cell_angle_alpha    60.00000006208124
_cell_angle_beta     59.99999969208947
_cell_angle_gamma    59.999998973612975

_space_group_name_H-M_alt    "P 1"
_space_group_IT_number       1

loop_
  _space_group_symop_operation_xyz
  'x, y, z'

loop_
  _atom_site_type_symbol
  _atom_site_label
  _atom_site_symmetry_multiplicity
  _atom_site_fract_x
  _atom_site_fract_y
  _atom_site_fract_z
  _atom_site_occupancy
  Sn  Sn1       1.0  0.24999999420434782  0.249999936708904  0.2500000617839712  1.0000
  Sn  Sn2       1.0  0.7500000434994318  0.7500000315876844  0.7499999683495995  1.0000
  Hg  Hg1       1.0  0.9999999964280488  1.0715853501637475e-08  0.9999999672631897  1.0000
  Cl  Cl1       1.0  0.26162332093175644  0.26162331178745835  0.7383766743354819  1.0000
  Cl  Cl2       1.0  0.7383766778395597  0.7383766672249837  0.26162330574370374  1.0000
  Cl  Cl3       1.0  0.7383766736856013  0.26162332203574434  0.26162333126856907  1.0000
  Cl  Cl4       1.0  0.26162330028633884  0.7383767212718195  0.7383766888507052  1.0000
  Cl  Cl5       1.0  0.2616233237541812  0.7383767163818544  0.2616233136723111  1.0000
  Cl  Cl6       1.0  0.7383766785715611  0.26162328227631926  0.7383766941793555  1.0000
