data_image0
_chemical_formula_structural       Sn2HfSe6
_chemical_formula_sum              "Sn2 Hf1 Se6"
_cell_length_a       6.81040772619141
_cell_length_b       6.810407753278132
_cell_length_c       6.810407625300026
_cell_angle_alpha    59.999999658262446
_cell_angle_beta     59.99999965862477
_cell_angle_gamma    60.00000079627077

_space_group_name_H-M_alt    "P 1"
_space_group_IT_number       1

loop_
  _space_group_symop_operation_xyz
  'x, y, z'

loop_
  _atom_site_type_symbol
  _atom_site_label
  _atom_site_symmetry_multiplicity
  _atom_site_fract_x
  _atom_site_fract_y
  _atom_site_fract_z
  _atom_site_occupancy
  Sn  Sn1       1.0  0.2499998872017737  0.25000000741221123  0.2500000224827399  1.0000
  Sn  Sn2       1.0  0.7499999668295305  0.7499999610929764  0.7500000364450775  1.0000
  Hf  Hf1       1.0  0.9999999977227049  0.999999971226514  0.9999998848430516  1.0000
  Se  Se1       1.0  0.2675347430042111  0.26753467282332316  0.7324652862108054  1.0000
  Se  Se2       1.0  0.7324653608112204  0.7324653855990142  0.26753460580305294  1.0000
  Se  Se3       1.0  0.7324652417340979  0.267534780389429  0.2675346877382623  1.0000
  Se  Se4       1.0  0.26753463493505  0.7324653643533664  0.732465351042236  1.0000
  Se  Se5       1.0  0.2675347681630857  0.7324652205059872  0.2675347568622027  1.0000
  Se  Se6       1.0  0.7324654067809147  0.2675346347035973  0.7324653700529511  1.0000
