data_image0
_chemical_formula_structural       Sn2HgBr6
_chemical_formula_sum              "Sn2 Hg1 Br6"
_cell_length_a       7.244542541299122
_cell_length_b       7.24454245441516
_cell_length_c       7.2445425487932225
_cell_angle_alpha    60.00000016931067
_cell_angle_beta     60.00000005947634
_cell_angle_gamma    60.00000024988829

_space_group_name_H-M_alt    "P 1"
_space_group_IT_number       1

loop_
  _space_group_symop_operation_xyz
  'x, y, z'

loop_
  _atom_site_type_symbol
  _atom_site_label
  _atom_site_symmetry_multiplicity
  _atom_site_fract_x
  _atom_site_fract_y
  _atom_site_fract_z
  _atom_site_occupancy
  Sn  Sn1       1.0  0.25000004619610516  0.2499999064124717  0.2499999898912234  1.0000
  Sn  Sn2       1.0  0.74999997058053  0.7500000319939512  0.7499999387097784  1.0000
  Hg  Hg1       1.0  0.9999999254739033  0.9999999797130887  0.9999999673462383  1.0000
  Br  Br1       1.0  0.2641416608697106  0.2641416056222511  0.7358583627844985  1.0000
  Br  Br2       1.0  0.7358584157150091  0.7358585119852156  0.26414155397919353  1.0000
  Br  Br3       1.0  0.7358584053193558  0.26414152484450165  0.2641416429175793  1.0000
  Br  Br4       1.0  0.2641415903499639  0.7358584338488329  0.7358584503552039  1.0000
  Br  Br5       1.0  0.26414154732032086  0.7358584324965531  0.264141658546742  1.0000
  Br  Br6       1.0  0.7358584396060627  0.2641415667706023  0.735858432614093  1.0000
