data_image0
_chemical_formula_structural       Sn2HfO6
_chemical_formula_sum              "Sn2 Hf1 O6"
_cell_length_a       5.52176211853036
_cell_length_b       5.521761989185833
_cell_length_c       5.521762482506708
_cell_angle_alpha    59.999999243648126
_cell_angle_beta     60.00000035550039
_cell_angle_gamma    60.00000130610461

_space_group_name_H-M_alt    "P 1"
_space_group_IT_number       1

loop_
  _space_group_symop_operation_xyz
  'x, y, z'

loop_
  _atom_site_type_symbol
  _atom_site_label
  _atom_site_symmetry_multiplicity
  _atom_site_fract_x
  _atom_site_fract_y
  _atom_site_fract_z
  _atom_site_occupancy
  Sn  Sn1       1.0  0.25000008668019275  0.24999991992646547  0.24999994384140467  1.0000
  Sn  Sn2       1.0  0.7500000288870159  0.7500000015449596  0.749999940312219  1.0000
  Hf  Hf1       1.0  3.445194669418449e-08  0.9999999844737719  3.2142528282233543e-09  1.0000
  O   O1        1.0  0.26406144080970523  0.26406150345540513  0.7359384481231449  1.0000
  O   O2        1.0  0.7359384417882253  0.7359386087668295  0.2640615150922224  1.0000
  O   O3        1.0  0.7359385449888731  0.2640614285328517  0.2640615000347082  1.0000
  O   O4        1.0  0.2640613793928875  0.7359385395172583  0.7359385886264594  1.0000
  O   O5        1.0  0.2640615408661593  0.7359385145316549  0.2640614089975068  1.0000
  O   O6        1.0  0.7359384949389359  0.26406149566107967  0.7359386391010033  1.0000
