data_image0
_chemical_formula_structural       Sn2IrO6
_chemical_formula_sum              "Sn2 Ir1 O6"
_cell_length_a       5.567654103801898
_cell_length_b       5.567653548365004
_cell_length_c       5.567653845206754
_cell_angle_alpha    59.99999877447065
_cell_angle_beta     59.99999695099654
_cell_angle_gamma    59.999998263358414

_space_group_name_H-M_alt    "P 1"
_space_group_IT_number       1

loop_
  _space_group_symop_operation_xyz
  'x, y, z'

loop_
  _atom_site_type_symbol
  _atom_site_label
  _atom_site_symmetry_multiplicity
  _atom_site_fract_x
  _atom_site_fract_y
  _atom_site_fract_z
  _atom_site_occupancy
  Sn  Sn1       1.0  0.24999996770855903  0.24999992437776894  0.25000005841501427  1.0000
  Sn  Sn2       1.0  0.7500000119303619  0.7500000129061174  0.7499999829954055  1.0000
  Ir  Ir1       1.0  0.9999999398340195  3.7395760329011395e-08  8.502474786799506e-08  1.0000
  O   O1        1.0  0.24102438733282763  0.2410243950154341  0.7589756669736584  1.0000
  O   O2        1.0  0.7589756303487574  0.7589755774644621  0.24102437194310794  1.0000
  O   O3        1.0  0.7589756907314117  0.2410243026319457  0.24102438517176142  1.0000
  O   O4        1.0  0.24102444470496187  0.7589756214534383  0.7589755472213154  1.0000
  O   O5        1.0  0.24102437654737305  0.7589756115188616  0.2410244132643106  1.0000
  O   O6        1.0  0.7589755773846217  0.241024477547812  0.7589755579238252  1.0000
