data_image0
_chemical_formula_structural       Sn2InF6
_chemical_formula_sum              "Sn2 In1 F6"
_cell_length_a       5.840713442112354
_cell_length_b       5.840713800942766
_cell_length_c       5.840713784870944
_cell_angle_alpha    59.99999988471093
_cell_angle_beta     59.99999924897588
_cell_angle_gamma    60.00000030062574

_space_group_name_H-M_alt    "P 1"
_space_group_IT_number       1

loop_
  _space_group_symop_operation_xyz
  'x, y, z'

loop_
  _atom_site_type_symbol
  _atom_site_label
  _atom_site_symmetry_multiplicity
  _atom_site_fract_x
  _atom_site_fract_y
  _atom_site_fract_z
  _atom_site_occupancy
  Sn  Sn1       1.0  0.24999998747761745  0.2500000478120103  0.24999997352448966  1.0000
  Sn  Sn2       1.0  0.7500000155751381  0.7499999484234405  0.7500000428722073  1.0000
  In  In1       1.0  0.9999999816280848  0.9999999958061812  0.9999999838889547  1.0000
  F   F1        1.0  0.25206540018310647  0.2520654185256137  0.7479345899739176  1.0000
  F   F2        1.0  0.747934600313618  0.747934573516018  0.25206543150982413  1.0000
  F   F3        1.0  0.7479345643511659  0.25206542141994104  0.25206544445498213  1.0000
  F   F4        1.0  0.25206547382820604  0.7479345643309618  0.7479345390752471  1.0000
  F   F5        1.0  0.25206543280298754  0.7479345509456656  0.25206546077801717  1.0000
  F   F6        1.0  0.7479345433702902  0.25206547254961004  0.7479345194739966  1.0000
