data_image0
_chemical_formula_structural       Sn2InCl6
_chemical_formula_sum              "Sn2 In1 Cl6"
_cell_length_a       6.841805499544256
_cell_length_b       6.841805501474236
_cell_length_c       6.841805703097757
_cell_angle_alpha    59.99999976734275
_cell_angle_beta     59.999997225347165
_cell_angle_gamma    59.99999665553499

_space_group_name_H-M_alt    "P 1"
_space_group_IT_number       1

loop_
  _space_group_symop_operation_xyz
  'x, y, z'

loop_
  _atom_site_type_symbol
  _atom_site_label
  _atom_site_symmetry_multiplicity
  _atom_site_fract_x
  _atom_site_fract_y
  _atom_site_fract_z
  _atom_site_occupancy
  Sn  Sn1       1.0  0.24999999293761885  0.24999995382996162  0.2500001793390486  1.0000
  Sn  Sn2       1.0  0.7500000358001632  0.7500000297583496  0.7499997413593125  1.0000
  In  In1       1.0  0.9999999977331567  0.9999999713585566  0.9999999730676721  1.0000
  Cl  Cl1       1.0  0.25612515391170554  0.2561251181612036  0.7438748395575763  1.0000
  Cl  Cl2       1.0  0.7438747738352788  0.7438749101793666  0.2561251940329979  1.0000
  Cl  Cl3       1.0  0.7438749462940354  0.2561250597593455  0.25612520506252556  1.0000
  Cl  Cl4       1.0  0.2561251238175568  0.7438749667911314  0.7438748576297561  1.0000
  Cl  Cl5       1.0  0.2561250706307075  0.7438748287108349  0.2561251595956908  1.0000
  Cl  Cl6       1.0  0.7438749045945684  0.2561251584576592  0.7438748474561355  1.0000
