data_image0
_chemical_formula_structural       Sn2InI6
_chemical_formula_sum              "Sn2 In1 I6"
_cell_length_a       7.849293241548108
_cell_length_b       7.8492932093851735
_cell_length_c       7.849293155143553
_cell_angle_alpha    60.00000080412203
_cell_angle_beta     59.99999931639114
_cell_angle_gamma    60.00000040558388

_space_group_name_H-M_alt    "P 1"
_space_group_IT_number       1

loop_
  _space_group_symop_operation_xyz
  'x, y, z'

loop_
  _atom_site_type_symbol
  _atom_site_label
  _atom_site_symmetry_multiplicity
  _atom_site_fract_x
  _atom_site_fract_y
  _atom_site_fract_z
  _atom_site_occupancy
  Sn  Sn1       1.0  0.2500000127558454  0.25000004113514807  0.25000002215766015  1.0000
  Sn  Sn2       1.0  0.7500000014929508  0.7499999689332653  0.7499999850103531  1.0000
  In  In1       1.0  6.006223201390872e-08  0.9999999875173998  0.9999999609221828  1.0000
  I   I1        1.0  0.2591735136175383  0.25917354514534785  0.7408264524763276  1.0000
  I   I2        1.0  0.7408264683718571  0.7408264337165643  0.2591735367386341  1.0000
  I   I3        1.0  0.740826438920081  0.2591735155461782  0.259173562985405  1.0000
  I   I4        1.0  0.25917350028788827  0.7408265210477601  0.7408264684402598  1.0000
  I   I5        1.0  0.25917351254032694  0.7408264598266471  0.2591735280939236  1.0000
  I   I6        1.0  0.7408264883947462  0.25917352839721586  0.7408264851872258  1.0000
