data_image0
_chemical_formula_structural       Sn2InBr6
_chemical_formula_sum              "Sn2 In1 Br6"
_cell_length_a       7.248635494852548
_cell_length_b       7.248635462578422
_cell_length_c       7.248635482236241
_cell_angle_alpha    59.99999996093949
_cell_angle_beta     59.999999760222835
_cell_angle_gamma    60.000000490718605

_space_group_name_H-M_alt    "P 1"
_space_group_IT_number       1

loop_
  _space_group_symop_operation_xyz
  'x, y, z'

loop_
  _atom_site_type_symbol
  _atom_site_label
  _atom_site_symmetry_multiplicity
  _atom_site_fract_x
  _atom_site_fract_y
  _atom_site_fract_z
  _atom_site_occupancy
  Sn  Sn1       1.0  0.2500000351467647  0.2500000228327648  0.25000006420062604  1.0000
  Sn  Sn2       1.0  0.7499999366468059  0.7500001208765521  0.7499999445449554  1.0000
  In  In1       1.0  2.5551315823556575e-08  5.237825989860934e-08  7.140081152512176e-08  1.0000
  Br  Br1       1.0  0.258901948718804  0.2589018289149421  0.7410980731435185  1.0000
  Br  Br2       1.0  0.7410980455258416  0.7410980562823196  0.2589020025884631  1.0000
  Br  Br3       1.0  0.7410980885635138  0.25890184205350986  0.2589019359013387  1.0000
  Br  Br4       1.0  0.25890198158145533  0.7410980448333736  0.7410980072249107  1.0000
  Br  Br5       1.0  0.25890188300424755  0.7410980963929618  0.25890190312244604  1.0000
  Br  Br6       1.0  0.7410980574624121  0.25890193580135035  0.7410979935612844  1.0000
