data_image0
_chemical_formula_structural       Sn2MnS6
_chemical_formula_sum              "Sn2 Mn1 S6"
_cell_length_a       6.3665160814570765
_cell_length_b       6.366515971814951
_cell_length_c       6.36651618049416
_cell_angle_alpha    59.99999866082746
_cell_angle_beta     59.99999958682419
_cell_angle_gamma    59.99999862584085

_space_group_name_H-M_alt    "P 1"
_space_group_IT_number       1

loop_
  _space_group_symop_operation_xyz
  'x, y, z'

loop_
  _atom_site_type_symbol
  _atom_site_label
  _atom_site_symmetry_multiplicity
  _atom_site_fract_x
  _atom_site_fract_y
  _atom_site_fract_z
  _atom_site_occupancy
  Sn  Sn1       1.0  0.2499999883158479  0.2500000344435083  0.24999995530644417  1.0000
  Sn  Sn2       1.0  0.7500000200755547  0.74999997059325  0.7500000712200467  1.0000
  Mn  Mn1       1.0  2.3779375800775768e-08  2.1161014662024194e-08  0.9999999712469337  1.0000
  S   S1        1.0  0.24529413222892246  0.24529412132646936  0.7547059184109636  1.0000
  S   S2        1.0  0.7547059279365026  0.7547058317696163  0.24529409563311033  1.0000
  S   S3        1.0  0.7547058646760999  0.2452940912779523  0.24529415403376986  1.0000
  S   S4        1.0  0.24529410967604076  0.7547059233774492  0.7547058344400621  1.0000
  S   S5        1.0  0.24529411264837145  0.7547059346632898  0.2452941038417887  1.0000
  S   S6        1.0  0.7547058362018277  0.24529408576329767  0.7547058866438322  1.0000
