data_image0
_chemical_formula_structural       Sn2MgBr6
_chemical_formula_sum              "Sn2 Mg1 Br6"
_cell_length_a       7.079548695555261
_cell_length_b       7.079548692320738
_cell_length_c       7.079548645012931
_cell_angle_alpha    59.9999998696923
_cell_angle_beta     60.000000558599275
_cell_angle_gamma    59.999999561270364

_space_group_name_H-M_alt    "P 1"
_space_group_IT_number       1

loop_
  _space_group_symop_operation_xyz
  'x, y, z'

loop_
  _atom_site_type_symbol
  _atom_site_label
  _atom_site_symmetry_multiplicity
  _atom_site_fract_x
  _atom_site_fract_y
  _atom_site_fract_z
  _atom_site_occupancy
  Sn  Sn1       1.0  0.25000008847522853  0.24999986121071416  0.2500000176857465  1.0000
  Sn  Sn2       1.0  0.7499999087625645  0.7500001545241984  0.7499998456538902  1.0000
  Mg  Mg1       1.0  6.247409818064347e-08  0.999999974050361  0.9999999619624986  1.0000
  Br  Br1       1.0  0.25688651771047444  0.2568864481080643  0.7431135233890941  1.0000
  Br  Br2       1.0  0.743113453645582  0.7431135278374015  0.2568865394634269  1.0000
  Br  Br3       1.0  0.7431134755754313  0.256886424352267  0.2568865447373782  1.0000
  Br  Br4       1.0  0.2568865009366022  0.7431135948425968  0.7431135108626883  1.0000
  Br  Br5       1.0  0.2568864714956991  0.7431135316326086  0.25688647936095516  1.0000
  Br  Br6       1.0  0.7431135182625078  0.25688647718239954  0.7431135804560302  1.0000
