data_image0
_chemical_formula_structural       Sn2MnBr6
_chemical_formula_sum              "Sn2 Mn1 Br6"
_cell_length_a       7.105255706144537
_cell_length_b       7.105255717792759
_cell_length_c       7.105255725866594
_cell_angle_alpha    59.99999940946324
_cell_angle_beta     59.999999835391314
_cell_angle_gamma    60.00000078590828

_space_group_name_H-M_alt    "P 1"
_space_group_IT_number       1

loop_
  _space_group_symop_operation_xyz
  'x, y, z'

loop_
  _atom_site_type_symbol
  _atom_site_label
  _atom_site_symmetry_multiplicity
  _atom_site_fract_x
  _atom_site_fract_y
  _atom_site_fract_z
  _atom_site_occupancy
  Sn  Sn1       1.0  0.24999995044064807  0.24999972481416025  0.25000019174050614  1.0000
  Sn  Sn2       1.0  0.750000122772775  0.7499999104695637  0.7499999926676608  1.0000
  Mn  Mn1       1.0  0.9999999658721485  0.9999999999999991  9.728623236221222e-08  1.0000
  Br  Br1       1.0  0.2480152942912146  0.24801545139426076  0.7519846336031797  1.0000
  Br  Br2       1.0  0.7519846478520815  0.7519846941096385  0.24801529930397065  1.0000
  Br  Br3       1.0  0.7519846598880172  0.24801533497558384  0.24801535553403947  1.0000
  Br  Br4       1.0  0.2480153518742017  0.7519847674353966  0.7519844740359405  1.0000
  Br  Br5       1.0  0.2480153432099396  0.7519847652846824  0.24801535881571704  1.0000
  Br  Br6       1.0  0.7519846617559937  0.24801535263974842  0.7519845958772974  1.0000
