data_image0
_chemical_formula_structural       Sn2MnCl6
_chemical_formula_sum              "Sn2 Mn1 Cl6"
_cell_length_a       6.670250532702052
_cell_length_b       6.670250147863711
_cell_length_c       6.670250171554379
_cell_angle_alpha    59.99999802071456
_cell_angle_beta     60.000000454849086
_cell_angle_gamma    59.99999890505442

_space_group_name_H-M_alt    "P 1"
_space_group_IT_number       1

loop_
  _space_group_symop_operation_xyz
  'x, y, z'

loop_
  _atom_site_type_symbol
  _atom_site_label
  _atom_site_symmetry_multiplicity
  _atom_site_fract_x
  _atom_site_fract_y
  _atom_site_fract_z
  _atom_site_occupancy
  Sn  Sn1       1.0  0.24999992036778962  0.24999986145758604  0.2500000676975489  1.0000
  Sn  Sn2       1.0  0.7500000912670378  0.7500000636027915  0.7499999812974713  1.0000
  Mn  Mn1       1.0  3.567250608781376e-08  0.99999994491609  0.9999999092596946  1.0000
  Cl  Cl1       1.0  0.24806555275587275  0.24806544964478733  0.7519344490945751  1.0000
  Cl  Cl2       1.0  0.7519345087483923  0.7519345231549821  0.24806547913471014  1.0000
  Cl  Cl3       1.0  0.7519344204640015  0.24806553522372443  0.24806553960084293  1.0000
  Cl  Cl4       1.0  0.24806544174832612  0.7519346303697322  0.7519345567889224  1.0000
  Cl  Cl5       1.0  0.24806552898358314  0.7519345448175452  0.24806544106278122  1.0000
  Cl  Cl6       1.0  0.7519344992093572  0.2480654500157873  0.7519345737618686  1.0000
