data_image0
_chemical_formula_structural       Sn2MoO6
_chemical_formula_sum              "Sn2 Mo1 O6"
_cell_length_a       5.573507943862169
_cell_length_b       5.5735080006429785
_cell_length_c       5.573507826190421
_cell_angle_alpha    59.999999162464086
_cell_angle_beta     59.99999955220233
_cell_angle_gamma    59.999998572926394

_space_group_name_H-M_alt    "P 1"
_space_group_IT_number       1

loop_
  _space_group_symop_operation_xyz
  'x, y, z'

loop_
  _atom_site_type_symbol
  _atom_site_label
  _atom_site_symmetry_multiplicity
  _atom_site_fract_x
  _atom_site_fract_y
  _atom_site_fract_z
  _atom_site_occupancy
  Sn  Sn1       1.0  0.250000011875425  0.2500000514649606  0.2499999459223545  1.0000
  Sn  Sn2       1.0  0.749999907575353  0.750000097261445  0.7499999931563219  1.0000
  Mo  Mo1       1.0  0.999999993910375  0.9999999934076801  2.4282994604069647e-08  1.0000
  O   O1        1.0  0.24724351800549585  0.24724345797515795  0.7527565303764244  1.0000
  O   O2        1.0  0.7527565652657514  0.752756429255897  0.24724348624693  1.0000
  O   O3        1.0  0.7527564949329311  0.24724342516667405  0.24724360433183912  1.0000
  O   O4        1.0  0.2472435484289373  0.7527565631466159  0.7527564355311522  1.0000
  O   O5        1.0  0.2472435378185813  0.7527564881875409  0.24724348580504768  1.0000
  O   O6        1.0  0.7527564270890812  0.2472434495846332  0.7527565629353375  1.0000
