data_image0
_chemical_formula_structural       Sn2MgF6
_chemical_formula_sum              "Sn2 Mg1 F6"
_cell_length_a       5.451603457816109
_cell_length_b       5.451603082168157
_cell_length_c       5.451603164405339
_cell_angle_alpha    60.00000118353911
_cell_angle_beta     60.00000074013409
_cell_angle_gamma    59.999999730013904

_space_group_name_H-M_alt    "P 1"
_space_group_IT_number       1

loop_
  _space_group_symop_operation_xyz
  'x, y, z'

loop_
  _atom_site_type_symbol
  _atom_site_label
  _atom_site_symmetry_multiplicity
  _atom_site_fract_x
  _atom_site_fract_y
  _atom_site_fract_z
  _atom_site_occupancy
  Sn  Sn1       1.0  0.24999983794730074  0.2500000244651857  0.24999998889305045  1.0000
  Sn  Sn2       1.0  0.7500000740023374  0.7500000958613376  0.7499998808101931  1.0000
  Mg  Mg1       1.0  3.388949100067546e-08  4.321370438734685e-15  1.6832185522416856e-07  1.0000
  F   F1        1.0  0.24851398833856403  0.2485139227219507  0.7514861090692814  1.0000
  F   F2        1.0  0.7514859870291762  0.7514859819331394  0.248514000015354  1.0000
  F   F3        1.0  0.7514862088160564  0.2485138998454049  0.24851380883207078  1.0000
  F   F4        1.0  0.2485140191187362  0.7514859778507538  0.7514860938980389  1.0000
  F   F5        1.0  0.24851388226825016  0.7514861055678869  0.24851388693194806  1.0000
  F   F6        1.0  0.7514859538154773  0.24851399453943968  0.7514860619973373  1.0000
