data_image0
_chemical_formula_structural       Sn2MnO6
_chemical_formula_sum              "Sn2 Mn1 O6"
_cell_length_a       5.442703145804833
_cell_length_b       5.44270486251765
_cell_length_c       5.44270535712846
_cell_angle_alpha    59.99998575837331
_cell_angle_beta     59.999967552516324
_cell_angle_gamma    60.000010416560066

_space_group_name_H-M_alt    "P 1"
_space_group_IT_number       1

loop_
  _space_group_symop_operation_xyz
  'x, y, z'

loop_
  _atom_site_type_symbol
  _atom_site_label
  _atom_site_symmetry_multiplicity
  _atom_site_fract_x
  _atom_site_fract_y
  _atom_site_fract_z
  _atom_site_occupancy
  Sn  Sn1       1.0  0.25000014016371824  0.24999970021728132  0.2500005465696925  1.0000
  Sn  Sn2       1.0  0.7499995590872008  0.7500009211042985  0.7500004381174162  1.0000
  Mn  Mn1       1.0  8.123653161054487e-07  0.9999998987388721  4.8658545178040995e-08  1.0000
  O   O1        1.0  0.2433906169501293  0.24338990255483509  0.7566093084946439  1.0000
  O   O2        1.0  0.7566102129148915  0.7566097264066226  0.2433900839258078  1.0000
  O   O3        1.0  0.7566101905038843  0.2433897206678673  0.24339007574672833  1.0000
  O   O4        1.0  0.24339050160694903  0.7566100860633468  0.7566092764554063  1.0000
  O   O5        1.0  0.24339079846629957  0.7566100695645195  0.24338918834211934  1.0000
  O   O6        1.0  0.7566100092345067  0.24338990593550922  0.756609839785754  1.0000
