data_image0
_chemical_formula_structural       Sn2MoS6
_chemical_formula_sum              "Sn2 Mo1 S6"
_cell_length_a       6.448091307838233
_cell_length_b       6.44809126417242
_cell_length_c       6.448091367715423
_cell_angle_alpha    59.99999971496393
_cell_angle_beta     59.999999764878964
_cell_angle_gamma    59.99999949467867

_space_group_name_H-M_alt    "P 1"
_space_group_IT_number       1

loop_
  _space_group_symop_operation_xyz
  'x, y, z'

loop_
  _atom_site_type_symbol
  _atom_site_label
  _atom_site_symmetry_multiplicity
  _atom_site_fract_x
  _atom_site_fract_y
  _atom_site_fract_z
  _atom_site_occupancy
  Sn  Sn1       1.0  0.24999998780435434  0.25000001364231567  0.24999998687284722  1.0000
  Sn  Sn2       1.0  0.7500000012549866  0.7499999972409461  0.7500000085151289  1.0000
  Mo  Mo1       1.0  0.9999999837931398  0.9999999734085212  2.4500862471938017e-08  1.0000
  S   S1        1.0  0.25549688237041207  0.2554969104363473  0.7445031030145223  1.0000
  S   S2        1.0  0.7445031094200689  0.744503113742654  0.25549689056340025  1.0000
  S   S3        1.0  0.7445031109394832  0.25549688585488517  0.25549687623924644  1.0000
  S   S4        1.0  0.25549692269032265  0.7445031041350717  0.7445030949033777  1.0000
  S   S5        1.0  0.2554968850310628  0.744503108601834  0.2554969001752401  1.0000
  S   S6        1.0  0.744503112041718  0.2554968889856883  0.7445031211165837  1.0000
