data_image0
_chemical_formula_structural       Sn2MgCl6
_chemical_formula_sum              "Sn2 Mg1 Cl6"
_cell_length_a       6.688177452200338
_cell_length_b       6.6881774757705275
_cell_length_c       6.688177453181162
_cell_angle_alpha    60.00000014179297
_cell_angle_beta     60.000000122328274
_cell_angle_gamma    59.99999977690394

_space_group_name_H-M_alt    "P 1"
_space_group_IT_number       1

loop_
  _space_group_symop_operation_xyz
  'x, y, z'

loop_
  _atom_site_type_symbol
  _atom_site_label
  _atom_site_symmetry_multiplicity
  _atom_site_fract_x
  _atom_site_fract_y
  _atom_site_fract_z
  _atom_site_occupancy
  Sn  Sn1       1.0  0.25000000200781297  0.2500000041727293  0.25000000070694367  1.0000
  Sn  Sn2       1.0  0.7500000105057163  0.7499999887124749  0.750000005801846  1.0000
  Mg  Mg1       1.0  0.9999999930940795  3.3772011096545144e-17  0.9999999705590962  1.0000
  Cl  Cl1       1.0  0.25317296534890327  0.25317296685321056  0.7468270247531158  1.0000
  Cl  Cl2       1.0  0.7468270579244526  0.7468270351880367  0.2531729359135238  1.0000
  Cl  Cl3       1.0  0.7468270302097723  0.25317297029580127  0.2531729561240937  1.0000
  Cl  Cl4       1.0  0.253172934554748  0.7468270518887419  0.7468270715709361  1.0000
  Cl  Cl5       1.0  0.25317295493106057  0.746827035476849  0.2531729652961426  1.0000
  Cl  Cl6       1.0  0.7468270508860055  0.2531729464211027  0.7468270694917881  1.0000
