data_image0
_chemical_formula_structural       Sn2MnI6
_chemical_formula_sum              "Sn2 Mn1 I6"
_cell_length_a       7.562782839103676
_cell_length_b       7.562782750710268
_cell_length_c       7.56278280159411
_cell_angle_alpha    60.00000002076634
_cell_angle_beta     60.00000028059844
_cell_angle_gamma    60.00000053784273

_space_group_name_H-M_alt    "P 1"
_space_group_IT_number       1

loop_
  _space_group_symop_operation_xyz
  'x, y, z'

loop_
  _atom_site_type_symbol
  _atom_site_label
  _atom_site_symmetry_multiplicity
  _atom_site_fract_x
  _atom_site_fract_y
  _atom_site_fract_z
  _atom_site_occupancy
  Sn  Sn1       1.0  0.25000029784662475  0.24999986443612324  0.2500000053803519  1.0000
  Sn  Sn2       1.0  0.7499999827032019  0.7499998248878245  0.7500000833831558  1.0000
  Mn  Mn1       1.0  3.1877978024163794e-08  9.71662095264139e-09  0.9999999382124979  1.0000
  I   I1        1.0  0.2494339432706966  0.24943407161975362  0.7505659639325494  1.0000
  I   I2        1.0  0.7505659053821205  0.7505660614298739  0.24943401577998484  1.0000
  I   I3        1.0  0.7505658627802811  0.2494341040177931  0.24943398649806212  1.0000
  I   I4        1.0  0.24943404783971126  0.750566035509582  0.7505659074236909  1.0000
  I   I5        1.0  0.24943403699842573  0.7505659517566113  0.24943400508964084  1.0000
  I   I6        1.0  0.7505659000882581  0.24943408088793548  0.7505660705224931  1.0000
