data_image0
_chemical_formula_structural       Sn2MnSe6
_chemical_formula_sum              "Sn2 Mn1 Se6"
_cell_length_a       6.700980326631713
_cell_length_b       6.700980480402897
_cell_length_c       6.700980327398093
_cell_angle_alpha    60.000000155539325
_cell_angle_beta     59.99999813780318
_cell_angle_gamma    60.000000336631736

_space_group_name_H-M_alt    "P 1"
_space_group_IT_number       1

loop_
  _space_group_symop_operation_xyz
  'x, y, z'

loop_
  _atom_site_type_symbol
  _atom_site_label
  _atom_site_symmetry_multiplicity
  _atom_site_fract_x
  _atom_site_fract_y
  _atom_site_fract_z
  _atom_site_occupancy
  Sn  Sn1       1.0  0.24999996112638703  0.25000005304922696  0.25000001010052103  1.0000
  Sn  Sn2       1.0  0.7499999889830826  0.7500000129308861  0.7500000804543779  1.0000
  Mn  Mn1       1.0  3.8710354715473247e-08  1.8277099451860877e-08  0.9999999118135139  1.0000
  Se  Se1       1.0  0.2464112827719693  0.24641124782086618  0.7535887305140994  1.0000
  Se  Se2       1.0  0.7535887107844272  0.7535887084966506  0.24641128271703122  1.0000
  Se  Se3       1.0  0.7535887190459255  0.24641126347648415  0.24641127204921187  1.0000
  Se  Se4       1.0  0.24641127377877234  0.7535887312229413  0.7535887134028998  1.0000
  Se  Se5       1.0  0.24641130230509287  0.7535886689675727  0.24641130786785234  1.0000
  Se  Se6       1.0  0.7535887214502779  0.2464113001439139  0.753588676405211  1.0000
