data_image0
_chemical_formula_structural       Sn2NbBr6
_chemical_formula_sum              "Sn2 Nb1 Br6"
_cell_length_a       7.286687278312164
_cell_length_b       7.286687179073509
_cell_length_c       7.286687192960338
_cell_angle_alpha    59.99999987076368
_cell_angle_beta     59.99999990233148
_cell_angle_gamma    59.99999872326841

_space_group_name_H-M_alt    "P 1"
_space_group_IT_number       1

loop_
  _space_group_symop_operation_xyz
  'x, y, z'

loop_
  _atom_site_type_symbol
  _atom_site_label
  _atom_site_symmetry_multiplicity
  _atom_site_fract_x
  _atom_site_fract_y
  _atom_site_fract_z
  _atom_site_occupancy
  Sn  Sn1       1.0  0.24999994114281002  0.2500000293868137  0.25000001005945727  1.0000
  Sn  Sn2       1.0  0.7499999746615983  0.7500000242901178  0.7500000153166299  1.0000
  Nb  Nb1       1.0  3.727959650117645e-08  1.1765585108130217e-08  0.9999999219551444  1.0000
  Br  Br1       1.0  0.24862242607501864  0.24862241265545312  0.7513776080122351  1.0000
  Br  Br2       1.0  0.7513776120539655  0.7513775973207306  0.2486224054992527  1.0000
  Br  Br3       1.0  0.7513776432683577  0.248622344662067  0.2486224011733649  1.0000
  Br  Br4       1.0  0.24862237029138842  0.7513775964014014  0.7513776467278078  1.0000
  Br  Br5       1.0  0.24862239101842593  0.7513775891337998  0.2486223997924685  1.0000
  Br  Br6       1.0  0.751377603972909  0.24862238386482968  0.7513776016267224  1.0000
