data_image0
_chemical_formula_structural       Sn2NbI6
_chemical_formula_sum              "Sn2 Nb1 I6"
_cell_length_a       7.86790907189479
_cell_length_b       7.867909133554285
_cell_length_c       7.867909219288234
_cell_angle_alpha    60.00000000690623
_cell_angle_beta     60.00000046581055
_cell_angle_gamma    60.00000078967061

_space_group_name_H-M_alt    "P 1"
_space_group_IT_number       1

loop_
  _space_group_symop_operation_xyz
  'x, y, z'

loop_
  _atom_site_type_symbol
  _atom_site_label
  _atom_site_symmetry_multiplicity
  _atom_site_fract_x
  _atom_site_fract_y
  _atom_site_fract_z
  _atom_site_occupancy
  Sn  Sn1       1.0  0.2499999739145206  0.24999997973614  0.250000015797041  1.0000
  Sn  Sn2       1.0  0.7499999877248215  0.7500000450594791  0.7500001356000037  1.0000
  Nb  Nb1       1.0  0.9999999542676277  0.9999999610841693  0.9999999851297452  1.0000
  I   I1        1.0  0.24923171724686471  0.2492317361290034  0.7507682850360193  1.0000
  I   I2        1.0  0.7507683157711093  0.750768316686014  0.24923162728514367  1.0000
  I   I3        1.0  0.750768262118189  0.24923175652796703  0.24923171026161098  1.0000
  I   I4        1.0  0.2492316998619785  0.7507682760508181  0.750768275658256  1.0000
  I   I5        1.0  0.24923179072973503  0.7507682775760202  0.24923165729006944  1.0000
  I   I6        1.0  0.7507682970069282  0.24923165070834058  0.7507683064598915  1.0000
