data_image0
_chemical_formula_structural       Sn2NiS6
_chemical_formula_sum              "Sn2 Ni1 S6"
_cell_length_a       6.233420496134632
_cell_length_b       6.233420528933188
_cell_length_c       6.233420407764976
_cell_angle_alpha    59.99999799732121
_cell_angle_beta     59.99999898626426
_cell_angle_gamma    59.99999833106588

_space_group_name_H-M_alt    "P 1"
_space_group_IT_number       1

loop_
  _space_group_symop_operation_xyz
  'x, y, z'

loop_
  _atom_site_type_symbol
  _atom_site_label
  _atom_site_symmetry_multiplicity
  _atom_site_fract_x
  _atom_site_fract_y
  _atom_site_fract_z
  _atom_site_occupancy
  Sn  Sn1       1.0  0.24999996523400722  0.25000003170953233  0.2500000155648709  1.0000
  Sn  Sn2       1.0  0.750000008963847  0.7500000165364412  0.7499999796278525  1.0000
  Ni  Ni1       1.0  0.9999999490114962  0.9999999862463731  2.916255484473292e-08  1.0000
  S   S1        1.0  0.24706964994999073  0.2470696716945517  0.7529303238063451  1.0000
  S   S2        1.0  0.752930359575775  0.7529303372553436  0.2470696717662066  1.0000
  S   S3        1.0  0.7529303373388375  0.2470696469976089  0.2470696376635897  1.0000
  S   S4        1.0  0.24706968551035965  0.7529303108673852  0.7529303607471411  1.0000
  S   S5        1.0  0.2470696550692882  0.7529303192754887  0.2470696462345073  1.0000
  S   S6        1.0  0.7529304109091965  0.24706967592077878  0.7529303328012653  1.0000
