data_image0
_chemical_formula_structural       Sn2NbF6
_chemical_formula_sum              "Sn2 Nb1 F6"
_cell_length_a       5.910864765155014
_cell_length_b       5.910864853266917
_cell_length_c       5.910864897295525
_cell_angle_alpha    59.999999120993735
_cell_angle_beta     60.000000403806396
_cell_angle_gamma    59.99999918051827

_space_group_name_H-M_alt    "P 1"
_space_group_IT_number       1

loop_
  _space_group_symop_operation_xyz
  'x, y, z'

loop_
  _atom_site_type_symbol
  _atom_site_label
  _atom_site_symmetry_multiplicity
  _atom_site_fract_x
  _atom_site_fract_y
  _atom_site_fract_z
  _atom_site_occupancy
  Sn  Sn1       1.0  0.2499999824231078  0.24999998354325115  0.24999999960073252  1.0000
  Sn  Sn2       1.0  0.7500000150297643  0.7500000169344925  0.7500000569627924  1.0000
  Nb  Nb1       1.0  0.999999989778717  0.9999999896398842  1.7057898557961563e-08  1.0000
  F   F1        1.0  0.24339102576963148  0.24339102170877375  0.7566089878085683  1.0000
  F   F2        1.0  0.7566089513591746  0.7566089518326697  0.2433910382475461  1.0000
  F   F3        1.0  0.7566089626379052  0.24339108278162275  0.24339103394850403  1.0000
  F   F4        1.0  0.24339105813873108  0.7566089239121909  0.7566089401731122  1.0000
  F   F5        1.0  0.24339105333764585  0.756608973322408  0.2433910364400626  1.0000
  F   F6        1.0  0.7566089273020379  0.24339108931603126  0.7566089399285154  1.0000
