data_image0
_chemical_formula_structural       Sn2NbO6
_chemical_formula_sum              "Sn2 Nb1 O6"
_cell_length_a       5.621414676287129
_cell_length_b       5.621414697441203
_cell_length_c       5.621414430750173
_cell_angle_alpha    59.99999497121103
_cell_angle_beta     59.999996593158336
_cell_angle_gamma    59.99999763568298

_space_group_name_H-M_alt    "P 1"
_space_group_IT_number       1

loop_
  _space_group_symop_operation_xyz
  'x, y, z'

loop_
  _atom_site_type_symbol
  _atom_site_label
  _atom_site_symmetry_multiplicity
  _atom_site_fract_x
  _atom_site_fract_y
  _atom_site_fract_z
  _atom_site_occupancy
  Sn  Sn1       1.0  0.25000029624837006  0.25000013201775395  0.24999980775041633  1.0000
  Sn  Sn2       1.0  0.7499998991269232  0.7500000125997383  0.7500005847565882  1.0000
  Nb  Nb1       1.0  7.3656002142648615e-09  8.714850880521347e-09  1.3306714358421012e-08  1.0000
  O   O1        1.0  0.25300047751623206  0.25300030926983985  0.7469995205399469  1.0000
  O   O2        1.0  0.7469994348511878  0.7469996675867969  0.2530002434738164  1.0000
  O   O3        1.0  0.7469995620386223  0.253000610120995  0.2530002161134925  1.0000
  O   O4        1.0  0.2530002816495576  0.7469994495267297  0.7469996458001367  1.0000
  O   O5        1.0  0.25300049670568564  0.7469994992074654  0.253000295937705  1.0000
  O   O6        1.0  0.746999510090336  0.2530003730709402  0.7469996047903418  1.0000
