data_image0
_chemical_formula_structural       Sn2NiBr6
_chemical_formula_sum              "Sn2 Ni1 Br6"
_cell_length_a       6.928204592383125
_cell_length_b       6.928204538476245
_cell_length_c       6.928204448574175
_cell_angle_alpha    60.000001451046046
_cell_angle_beta     60.00000107467241
_cell_angle_gamma    60.00000110474639

_space_group_name_H-M_alt    "P 1"
_space_group_IT_number       1

loop_
  _space_group_symop_operation_xyz
  'x, y, z'

loop_
  _atom_site_type_symbol
  _atom_site_label
  _atom_site_symmetry_multiplicity
  _atom_site_fract_x
  _atom_site_fract_y
  _atom_site_fract_z
  _atom_site_occupancy
  Sn  Sn1       1.0  0.2499999596558234  0.24999999695023303  0.2500000093081272  1.0000
  Sn  Sn2       1.0  0.7499999294526395  0.7500001693951248  0.7499998946457054  1.0000
  Ni  Ni1       1.0  3.3671319170203724e-08  0.9999999239860374  9.622684300884197e-08  1.0000
  Br  Br1       1.0  0.2471129070931435  0.24711283787022403  0.752887117366673  1.0000
  Br  Br2       1.0  0.7528871710592908  0.7528871163431444  0.2471128962806957  1.0000
  Br  Br3       1.0  0.7528871442599496  0.2471128336614505  0.24711290110172168  1.0000
  Br  Br4       1.0  0.24711287732693002  0.7528871152486181  0.7528871405933234  1.0000
  Br  Br5       1.0  0.24711284927618343  0.7528871684679767  0.24711283020792627  1.0000
  Br  Br6       1.0  0.7528871246330368  0.2471128334750885  0.7528871222069253  1.0000
