data_image0
_chemical_formula_structural       Sn2NiI6
_chemical_formula_sum              "Sn2 Ni1 I6"
_cell_length_a       7.426153839872028
_cell_length_b       7.426153868141997
_cell_length_c       7.426153631947231
_cell_angle_alpha    60.00000037039598
_cell_angle_beta     60.00000083167442
_cell_angle_gamma    60.000001001702664

_space_group_name_H-M_alt    "P 1"
_space_group_IT_number       1

loop_
  _space_group_symop_operation_xyz
  'x, y, z'

loop_
  _atom_site_type_symbol
  _atom_site_label
  _atom_site_symmetry_multiplicity
  _atom_site_fract_x
  _atom_site_fract_y
  _atom_site_fract_z
  _atom_site_occupancy
  Sn  Sn1       1.0  0.24999998627383457  0.25000006902101385  0.2499999956667867  1.0000
  Sn  Sn2       1.0  0.7500000664122562  0.7500000009090747  0.7500001049581666  1.0000
  Ni  Ni1       1.0  0.999999993513577  0.999999986806146  1.7919691283414572e-08  1.0000
  I   I1        1.0  0.25098148469112613  0.25098151325343576  0.7490185033328879  1.0000
  I   I2        1.0  0.7490185182863733  0.7490184725658356  0.2509814218151873  1.0000
  I   I3        1.0  0.7490185007178358  0.2509815564931091  0.25098144616928925  1.0000
  I   I4        1.0  0.2509814441620453  0.7490184590123329  0.7490185295424974  1.0000
  I   I5        1.0  0.2509815185981847  0.7490184610341784  0.2509814881347533  1.0000
  I   I6        1.0  0.7490184875996402  0.25098149180045815  0.7490184869068722  1.0000
