data_image0
_chemical_formula_structural       Sn2NiF6
_chemical_formula_sum              "Sn2 Ni1 F6"
_cell_length_a       5.471634328008905
_cell_length_b       5.471634450379769
_cell_length_c       5.471634444014577
_cell_angle_alpha    60.000000183506856
_cell_angle_beta     59.999998595618045
_cell_angle_gamma    60.000000184815974

_space_group_name_H-M_alt    "P 1"
_space_group_IT_number       1

loop_
  _space_group_symop_operation_xyz
  'x, y, z'

loop_
  _atom_site_type_symbol
  _atom_site_label
  _atom_site_symmetry_multiplicity
  _atom_site_fract_x
  _atom_site_fract_y
  _atom_site_fract_z
  _atom_site_occupancy
  Sn  Sn1       1.0  0.250000111713758  0.2499998604652939  0.2499999576610787  1.0000
  Sn  Sn2       1.0  0.7500001496177781  0.7499999037186941  0.7499998356529063  1.0000
  Ni  Ni1       1.0  2.238351184461688e-09  0.9999999932849423  1.9961996035409767e-07  1.0000
  F   F1        1.0  0.2504672234159997  0.2504673806627394  0.7495327363780008  1.0000
  F   F2        1.0  0.7495327063726155  0.7495327640412366  0.2504673303474711  1.0000
  F   F3        1.0  0.7495326821102305  0.2504672674298991  0.2504673310645229  1.0000
  F   F4        1.0  0.25046730824192687  0.7495326892524358  0.7495326367329326  1.0000
  F   F5        1.0  0.25046721735572647  0.74953276992517  0.25046733549649186  1.0000
  F   F6        1.0  0.7495325956181048  0.25046737701715854  0.7495326569294583  1.0000
