data_image0
_chemical_formula_structural       Sn2NbSe6
_chemical_formula_sum              "Sn2 Nb1 Se6"
_cell_length_a       6.776891783208971
_cell_length_b       6.776891712871822
_cell_length_c       6.77689172606661
_cell_angle_alpha    59.999999605378676
_cell_angle_beta     59.99999916946148
_cell_angle_gamma    59.99999934133286

_space_group_name_H-M_alt    "P 1"
_space_group_IT_number       1

loop_
  _space_group_symop_operation_xyz
  'x, y, z'

loop_
  _atom_site_type_symbol
  _atom_site_label
  _atom_site_symmetry_multiplicity
  _atom_site_fract_x
  _atom_site_fract_y
  _atom_site_fract_z
  _atom_site_occupancy
  Sn  Sn1       1.0  0.24999998059417358  0.2500000140923589  0.25000001719627946  1.0000
  Sn  Sn2       1.0  0.7499999997321498  0.7500000115540494  0.7500000291219204  1.0000
  Nb  Nb1       1.0  1.635075696011802e-08  0.9999999765059202  0.99999994897436  1.0000
  Se  Se1       1.0  0.2600953466154448  0.2600953064972854  0.7399047036573743  1.0000
  Se  Se2       1.0  0.739904678631886  0.7399046866188586  0.26009529957538546  1.0000
  Se  Se3       1.0  0.7399046970042594  0.2600953073740318  0.2600953161032604  1.0000
  Se  Se4       1.0  0.2600952842345496  0.7399047002000074  0.7399047107584296  1.0000
  Se  Se5       1.0  0.2600953084131601  0.7399046999845753  0.26009527412674643  1.0000
  Se  Se6       1.0  0.7399046906735697  0.2600952949388057  0.7399047014414216  1.0000
