data_image0
_chemical_formula_structural       Sn2NbTe6
_chemical_formula_sum              "Sn2 Nb1 Te6"
_cell_length_a       7.311766243866696
_cell_length_b       7.311766192864432
_cell_length_c       7.311766368014295
_cell_angle_alpha    59.99999959559125
_cell_angle_beta     59.99999932607154
_cell_angle_gamma    60.00000026270819

_space_group_name_H-M_alt    "P 1"
_space_group_IT_number       1

loop_
  _space_group_symop_operation_xyz
  'x, y, z'

loop_
  _atom_site_type_symbol
  _atom_site_label
  _atom_site_symmetry_multiplicity
  _atom_site_fract_x
  _atom_site_fract_y
  _atom_site_fract_z
  _atom_site_occupancy
  Sn  Sn1       1.0  0.24999998024565515  0.25000000583425586  0.25000000830063374  1.0000
  Sn  Sn2       1.0  0.7499999895974886  0.7500000225278665  0.7499999965914314  1.0000
  Nb  Nb1       1.0  0.999999961093877  0.9999999698494079  1.4013478823176557e-08  1.0000
  Te  Te1       1.0  0.26326678528023945  0.2632667795949632  0.7367332306915206  1.0000
  Te  Te2       1.0  0.7367332854259875  0.7367332872929161  0.2632667263886619  1.0000
  Te  Te3       1.0  0.7367332371716983  0.26326673861986527  0.26326677285410255  1.0000
  Te  Te4       1.0  0.26326678298535555  0.7367331909153176  0.7367332316766226  1.0000
  Te  Te5       1.0  0.26326677785290264  0.7367332221325987  0.26326677759143147  1.0000
  Te  Te6       1.0  0.7367332003654055  0.26326678110403046  0.7367332411464323  1.0000
