data_image0
_chemical_formula_structural       Sn2NbCl6
_chemical_formula_sum              "Sn2 Nb1 Cl6"
_cell_length_a       6.847117289152239
_cell_length_b       6.847117774201609
_cell_length_c       6.847117489733117
_cell_angle_alpha    59.99999589413266
_cell_angle_beta     59.99999888955108
_cell_angle_gamma    59.999999317044576

_space_group_name_H-M_alt    "P 1"
_space_group_IT_number       1

loop_
  _space_group_symop_operation_xyz
  'x, y, z'

loop_
  _atom_site_type_symbol
  _atom_site_label
  _atom_site_symmetry_multiplicity
  _atom_site_fract_x
  _atom_site_fract_y
  _atom_site_fract_z
  _atom_site_occupancy
  Sn  Sn1       1.0  0.2499999070802407  0.2500000857943715  0.2499999834678394  1.0000
  Sn  Sn2       1.0  0.7500000915746241  0.749999879967114  0.7500000664006635  1.0000
  Nb  Nb1       1.0  0.9999998629890865  1.9854584702857782e-07  9.337235500124221e-08  1.0000
  Cl  Cl1       1.0  0.2494667893770883  0.2494667715617857  0.7505332586268333  1.0000
  Cl  Cl2       1.0  0.750533194661273  0.7505332532268462  0.2494667661154087  1.0000
  Cl  Cl3       1.0  0.7505331627485414  0.24946687323882658  0.24946681114399308  1.0000
  Cl  Cl4       1.0  0.24946699843243325  0.7505330299181203  0.7505330339540569  1.0000
  Cl  Cl5       1.0  0.24946677413954305  0.7505331484253794  0.24946680528467827  1.0000
  Cl  Cl6       1.0  0.7505332038020869  0.249466783350786  0.7505331667793653  1.0000
