data_image0
_chemical_formula_structural       Sn2NiSe6
_chemical_formula_sum              "Sn2 Ni1 Se6"
_cell_length_a       6.598374973148662
_cell_length_b       6.5983750452221575
_cell_length_c       6.598374980623633
_cell_angle_alpha    59.99999853833661
_cell_angle_beta     59.999998512646805
_cell_angle_gamma    59.99999881425917

_space_group_name_H-M_alt    "P 1"
_space_group_IT_number       1

loop_
  _space_group_symop_operation_xyz
  'x, y, z'

loop_
  _atom_site_type_symbol
  _atom_site_label
  _atom_site_symmetry_multiplicity
  _atom_site_fract_x
  _atom_site_fract_y
  _atom_site_fract_z
  _atom_site_occupancy
  Sn  Sn1       1.0  0.24999997327164827  0.2499999792516152  0.24999996605040078  1.0000
  Sn  Sn2       1.0  0.7499999753167443  0.750000086245328  0.7499999704403948  1.0000
  Ni  Ni1       1.0  2.7750904160677484e-09  7.424524781820048e-09  0.9999999585276004  1.0000
  Se  Se1       1.0  0.2500968916678809  0.2500969305884325  0.7499030932707601  1.0000
  Se  Se2       1.0  0.749903084956572  0.7499030718000532  0.2500969365324676  1.0000
  Se  Se3       1.0  0.749903048687502  0.25009697105976514  0.2500969046010359  1.0000
  Se  Se4       1.0  0.25009693852475495  0.749903057314556  0.7499030675117302  1.0000
  Se  Se5       1.0  0.2500969221736385  0.7499030442754121  0.25009697090151256  1.0000
  Se  Se6       1.0  0.7499031650724766  0.25009684674520793  0.7499031456597226  1.0000
