data_image0
_chemical_formula_structural       Sn2NbS6
_chemical_formula_sum              "Sn2 Nb1 S6"
_cell_length_a       6.45403411486421
_cell_length_b       6.4540341527202125
_cell_length_c       6.454034067510536
_cell_angle_alpha    60.00000029992144
_cell_angle_beta     60.0000003938412
_cell_angle_gamma    59.999999736448956

_space_group_name_H-M_alt    "P 1"
_space_group_IT_number       1

loop_
  _space_group_symop_operation_xyz
  'x, y, z'

loop_
  _atom_site_type_symbol
  _atom_site_label
  _atom_site_symmetry_multiplicity
  _atom_site_fract_x
  _atom_site_fract_y
  _atom_site_fract_z
  _atom_site_occupancy
  Sn  Sn1       1.0  0.24999999566933306  0.2499999979427329  0.249999993342659  1.0000
  Sn  Sn2       1.0  0.7499999904590795  0.7500000317810461  0.7499999872155467  1.0000
  Nb  Nb1       1.0  1.040910232979292e-08  1.7078781324141748e-08  0.999999976959547  1.0000
  S   S1        1.0  0.25952075536777885  0.2595207437715864  0.740479250844121  1.0000
  S   S2        1.0  0.7404792165748673  0.7404792479993451  0.2595207883211808  1.0000
  S   S3        1.0  0.7404792790458495  0.2595207145734955  0.2595207451714008  1.0000
  S   S4        1.0  0.25952075531736507  0.7404792563233695  0.7404792530782089  1.0000
  S   S5        1.0  0.2595207332993434  0.7404792611392791  0.25952073751744126  1.0000
  S   S6        1.0  0.7404792625343373  0.2595207287340099  0.7404792751569791  1.0000
