data_image0
_chemical_formula_structural       Sn2NiTe6
_chemical_formula_sum              "Sn2 Ni1 Te6"
_cell_length_a       7.04831303735631
_cell_length_b       7.048312939216153
_cell_length_c       7.0483130171625605
_cell_angle_alpha    60.00000048392868
_cell_angle_beta     59.99999969199992
_cell_angle_gamma    60.00000081040229

_space_group_name_H-M_alt    "P 1"
_space_group_IT_number       1

loop_
  _space_group_symop_operation_xyz
  'x, y, z'

loop_
  _atom_site_type_symbol
  _atom_site_label
  _atom_site_symmetry_multiplicity
  _atom_site_fract_x
  _atom_site_fract_y
  _atom_site_fract_z
  _atom_site_occupancy
  Sn  Sn1       1.0  0.25000002798026216  0.24999995158051655  0.24999998714615768  1.0000
  Sn  Sn2       1.0  0.7499999542167848  0.7500000424069476  0.7500000488076718  1.0000
  Ni  Ni1       1.0  0.9999999856872243  0.9999999200684412  1.7327803280851467e-08  1.0000
  Te  Te1       1.0  0.25533326567699777  0.2553332114605898  0.7446667683714178  1.0000
  Te  Te2       1.0  0.7446667833737369  0.7446668277055816  0.2553331590713835  1.0000
  Te  Te3       1.0  0.7446667736443909  0.25533324298677607  0.25533323420887694  1.0000
  Te  Te4       1.0  0.25533324120153067  0.74466678575354  0.7446667595314141  1.0000
  Te  Te5       1.0  0.25533325290025166  0.7446667959338087  0.25533324402113994  1.0000
  Te  Te6       1.0  0.7446667206085826  0.25533322411829407  0.7446667718942431  1.0000
