data_image0
_chemical_formula_structural       Sn2NiCl6
_chemical_formula_sum              "Sn2 Ni1 Cl6"
_cell_length_a       6.567291795932153
_cell_length_b       6.567291811155297
_cell_length_c       6.567291805683935
_cell_angle_alpha    60.000000201584584
_cell_angle_beta     59.99999993267566
_cell_angle_gamma    60.00000061091317

_space_group_name_H-M_alt    "P 1"
_space_group_IT_number       1

loop_
  _space_group_symop_operation_xyz
  'x, y, z'

loop_
  _atom_site_type_symbol
  _atom_site_label
  _atom_site_symmetry_multiplicity
  _atom_site_fract_x
  _atom_site_fract_y
  _atom_site_fract_z
  _atom_site_occupancy
  Sn  Sn1       1.0  0.25000011484689144  0.2499999532578802  0.24999996580927236  1.0000
  Sn  Sn2       1.0  0.7499999638118046  0.7500000630495003  0.7499998932697639  1.0000
  Ni  Ni1       1.0  3.349529401815809e-08  2.6108826474943864e-08  0.9999999610617537  1.0000
  Cl  Cl1       1.0  0.24673413174663025  0.24673410374803456  0.7532658938593156  1.0000
  Cl  Cl2       1.0  0.7532658055595826  0.7532658566118603  0.24673419025361237  1.0000
  Cl  Cl3       1.0  0.7532658002248673  0.24673414330277105  0.2467342006398086  1.0000
  Cl  Cl4       1.0  0.24673416000878132  0.7532658748695252  0.753265847671294  1.0000
  Cl  Cl5       1.0  0.2467341375006717  0.7532658477265735  0.24673418966206667  1.0000
  Cl  Cl6       1.0  0.753265845608654  0.246734138742148  0.7532658721991711  1.0000
