data_image0
_chemical_formula_structural       Sn2OsS6
_chemical_formula_sum              "Sn2 Os1 S6"
_cell_length_a       6.338552420710765
_cell_length_b       6.338552379509162
_cell_length_c       6.338552405872993
_cell_angle_alpha    59.99999926054391
_cell_angle_beta     59.99999935247067
_cell_angle_gamma    59.99999853939582

_space_group_name_H-M_alt    "P 1"
_space_group_IT_number       1

loop_
  _space_group_symop_operation_xyz
  'x, y, z'

loop_
  _atom_site_type_symbol
  _atom_site_label
  _atom_site_symmetry_multiplicity
  _atom_site_fract_x
  _atom_site_fract_y
  _atom_site_fract_z
  _atom_site_occupancy
  Sn  Sn1       1.0  0.2500000018210579  0.25000001453792076  0.25000001882565015  1.0000
  Sn  Sn2       1.0  0.7499999718452287  0.7499999914439456  0.7500000488861185  1.0000
  Os  Os1       1.0  0.9999999868249676  0.999999990338923  0.9999999924862873  1.0000
  S   S1        1.0  0.25861086771580477  0.2586108880680904  0.7413891138553304  1.0000
  S   S2        1.0  0.7413891330361642  0.7413891623547314  0.25861085340958057  1.0000
  S   S3        1.0  0.7413891285821195  0.2586108533471426  0.2586108146100368  1.0000
  S   S4        1.0  0.25861083082304187  0.7413891680924478  0.7413891594222426  1.0000
  S   S5        1.0  0.25861087283266887  0.741389123690686  0.2586108235385936  1.0000
  S   S6        1.0  0.7413892130629924  0.25861082432471594  0.7413891634017122  1.0000
