data_image0
_chemical_formula_structural       Sn2OsSe6
_chemical_formula_sum              "Sn2 Os1 Se6"
_cell_length_a       6.676961017250915
_cell_length_b       6.676961241747235
_cell_length_c       6.676961179044271
_cell_angle_alpha    59.9999995719639
_cell_angle_beta     59.9999996731706
_cell_angle_gamma    59.99999989190762

_space_group_name_H-M_alt    "P 1"
_space_group_IT_number       1

loop_
  _space_group_symop_operation_xyz
  'x, y, z'

loop_
  _atom_site_type_symbol
  _atom_site_label
  _atom_site_symmetry_multiplicity
  _atom_site_fract_x
  _atom_site_fract_y
  _atom_site_fract_z
  _atom_site_occupancy
  Sn  Sn1       1.0  0.25000001778822595  0.24999994356154814  0.24999998295350515  1.0000
  Sn  Sn2       1.0  0.749999997952512  0.7499999554160124  0.7500000040621517  1.0000
  Os  Os1       1.0  2.5326188890612634e-09  1.8342848560609264e-08  0.9999999655992693  1.0000
  Se  Se1       1.0  0.25945639479754684  0.25945643614235836  0.7405435736718294  1.0000
  Se  Se2       1.0  0.7405436052018693  0.740543593069425  0.25945639503724605  1.0000
  Se  Se3       1.0  0.7405435486672663  0.25945647311575265  0.259456418776576  1.0000
  Se  Se4       1.0  0.2594563927070289  0.7405436074560058  0.7405436224586881  1.0000
  Se  Se5       1.0  0.25945641340598075  0.7405435903362221  0.25945642338517594  1.0000
  Se  Se6       1.0  0.7405436045166669  0.25945640585843355  0.7405436292529005  1.0000
