data_image0
_chemical_formula_structural       Sn2PdO6
_chemical_formula_sum              "Sn2 Pd1 O6"
_cell_length_a       5.412945571004267
_cell_length_b       5.4129460400542495
_cell_length_c       5.412945574190533
_cell_angle_alpha    60.000000951538674
_cell_angle_beta     60.00000162384309
_cell_angle_gamma    60.00000095295182

_space_group_name_H-M_alt    "P 1"
_space_group_IT_number       1

loop_
  _space_group_symop_operation_xyz
  'x, y, z'

loop_
  _atom_site_type_symbol
  _atom_site_label
  _atom_site_symmetry_multiplicity
  _atom_site_fract_x
  _atom_site_fract_y
  _atom_site_fract_z
  _atom_site_occupancy
  Sn  Sn1       1.0  0.2500000784701558  0.2499998717798696  0.24999998983418517  1.0000
  Sn  Sn2       1.0  0.7499998487945818  0.7500000520255794  0.7499999537046167  1.0000
  Pd  Pd1       1.0  1.3424127676270317e-08  4.525242772109658e-09  0.9999999984150068  1.0000
  O   O1        1.0  0.2536700406545608  0.25367003824705137  0.7463299703761742  1.0000
  O   O2        1.0  0.746329940025687  0.7463299556996613  0.2536700758048852  1.0000
  O   O3        1.0  0.7463299744421988  0.2536699228249922  0.25367010117338273  1.0000
  O   O4        1.0  0.25367006006396015  0.7463300824348279  0.7463299050484757  1.0000
  O   O5        1.0  0.2536701277100915  0.7463300214135506  0.25366993990024483  1.0000
  O   O6        1.0  0.7463299409053913  0.2536700223108353  0.7463300485088985  1.0000
