data_image0
_chemical_formula_structural       Sn2PbI6
_chemical_formula_sum              "Sn2 Pb1 I6"
_cell_length_a       8.015874307745053
_cell_length_b       8.015874160077585
_cell_length_c       8.015874139037988
_cell_angle_alpha    60.00000004890335
_cell_angle_beta     59.99999965074687
_cell_angle_gamma    59.999998470851786

_space_group_name_H-M_alt    "P 1"
_space_group_IT_number       1

loop_
  _space_group_symop_operation_xyz
  'x, y, z'

loop_
  _atom_site_type_symbol
  _atom_site_label
  _atom_site_symmetry_multiplicity
  _atom_site_fract_x
  _atom_site_fract_y
  _atom_site_fract_z
  _atom_site_occupancy
  Sn  Sn1       1.0  0.2499999223886182  0.2499999415923329  0.2500000335869603  1.0000
  Sn  Sn2       1.0  0.750000009125202  0.7500000539618962  0.750000041089722  1.0000
  Pb  Pb1       1.0  0.9999999638996854  4.5836986101796715e-09  5.068899644840089e-08  1.0000
  I   I1        1.0  0.2702261568453937  0.2702261170803244  0.7297738721723367  1.0000
  I   I2        1.0  0.7297738983057599  0.7297738662507081  0.2702261218467846  1.0000
  I   I3        1.0  0.729773951796558  0.2702261009009864  0.2702260558062936  1.0000
  I   I4        1.0  0.2702261140498918  0.7297738503441598  0.7297738927695165  1.0000
  I   I5        1.0  0.27022611293935056  0.7297739373444065  0.27022608795797237  1.0000
  I   I6        1.0  0.7297738744625126  0.2702261239094928  0.7297738410931814  1.0000
