data_image0
_chemical_formula_structural       Sn2PbSe6
_chemical_formula_sum              "Sn2 Pb1 Se6"
_cell_length_a       6.813537246876939
_cell_length_b       6.813537248621865
_cell_length_c       6.813537236294047
_cell_angle_alpha    59.9999995637674
_cell_angle_beta     60.000000019312246
_cell_angle_gamma    59.99999993739794

_space_group_name_H-M_alt    "P 1"
_space_group_IT_number       1

loop_
  _space_group_symop_operation_xyz
  'x, y, z'

loop_
  _atom_site_type_symbol
  _atom_site_label
  _atom_site_symmetry_multiplicity
  _atom_site_fract_x
  _atom_site_fract_y
  _atom_site_fract_z
  _atom_site_occupancy
  Sn  Sn1       1.0  0.25000001300638747  0.25000003167882534  0.24999996665780685  1.0000
  Sn  Sn2       1.0  0.7499999868266711  0.7500000177432466  0.7499999749899465  1.0000
  Pb  Pb1       1.0  0.9999999816665376  0.9999999838223471  4.660888665648949e-08  1.0000
  Se  Se1       1.0  0.29432805928295036  0.2943279602490971  0.7056719778617432  1.0000
  Se  Se2       1.0  0.7056719988048747  0.7056720262598813  0.29432797492117285  1.0000
  Se  Se3       1.0  0.7056720026614355  0.29432795847620175  0.2943280217038858  1.0000
  Se  Se4       1.0  0.2943280356390915  0.7056719399544452  0.7056720407831703  1.0000
  Se  Se5       1.0  0.2943279756672207  0.7056720033334658  0.2943279981208608  1.0000
  Se  Se6       1.0  0.7056719426990672  0.29432808203894495  0.7056720103151018  1.0000
