data_image0
_chemical_formula_structural       Sn2PS6
_chemical_formula_sum              "Sn2 P1 S6"
_cell_length_a       6.441318738515547
_cell_length_b       6.441318884438706
_cell_length_c       6.441318519796806
_cell_angle_alpha    59.99999978312338
_cell_angle_beta     59.99999899914815
_cell_angle_gamma    59.99999881846832

_space_group_name_H-M_alt    "P 1"
_space_group_IT_number       1

loop_
  _space_group_symop_operation_xyz
  'x, y, z'

loop_
  _atom_site_type_symbol
  _atom_site_label
  _atom_site_symmetry_multiplicity
  _atom_site_fract_x
  _atom_site_fract_y
  _atom_site_fract_z
  _atom_site_occupancy
  Sn  Sn1       1.0  0.2500000115705161  0.25000001758553614  0.25000001784106984  1.0000
  Sn  Sn2       1.0  0.7500000002722753  0.7499999786024644  0.7500000069089031  1.0000
  P   P1        1.0  0.9999999916892232  0.9999999657750104  0.9999999762460458  1.0000
  S   S1        1.0  0.23906634090437756  0.23906635374949578  0.7609336202520661  1.0000
  S   S2        1.0  0.7609336434149259  0.7609336443398945  0.23906635210491523  1.0000
  S   S3        1.0  0.7609336399313669  0.23906638448260842  0.23906640134947038  1.0000
  S   S4        1.0  0.23906635425521658  0.7609336915637028  0.7609336342163342  1.0000
  S   S5        1.0  0.23906639259801468  0.7609336046671615  0.23906636227602748  1.0000
  S   S6        1.0  0.7609336404489627  0.23906637630973276  0.7609335973783182  1.0000
