data_image0
_chemical_formula_structural       Sn2PtCl6
_chemical_formula_sum              "Sn2 Pt1 Cl6"
_cell_length_a       6.770581406889438
_cell_length_b       6.7705815854148765
_cell_length_c       6.770581351497969
_cell_angle_alpha    60.00000015068867
_cell_angle_beta     59.99999888222139
_cell_angle_gamma    59.999998897887124

_space_group_name_H-M_alt    "P 1"
_space_group_IT_number       1

loop_
  _space_group_symop_operation_xyz
  'x, y, z'

loop_
  _atom_site_type_symbol
  _atom_site_label
  _atom_site_symmetry_multiplicity
  _atom_site_fract_x
  _atom_site_fract_y
  _atom_site_fract_z
  _atom_site_occupancy
  Sn  Sn1       1.0  0.25000002634233165  0.2499999368319184  0.2500000455594467  1.0000
  Sn  Sn2       1.0  0.7499998874943353  0.7500000167127775  0.7500001559217643  1.0000
  Pt  Pt1       1.0  2.4582970414619676e-08  0.9999999927643146  1.643498404795947e-08  1.0000
  Cl  Cl1       1.0  0.2462114593654222  0.24621143782478178  0.7537885600467819  1.0000
  Cl  Cl2       1.0  0.7537885793988841  0.7537886423443985  0.24621133546704374  1.0000
  Cl  Cl3       1.0  0.7537886156007406  0.24621140942815786  0.24621133059730552  1.0000
  Cl  Cl4       1.0  0.24621136690089288  0.7537886399893626  0.7537886039927533  1.0000
  Cl  Cl5       1.0  0.24621139386624544  0.7537886213283707  0.24621133408042253  1.0000
  Cl  Cl6       1.0  0.7537886461927585  0.24621130146466358  0.7537886173194578  1.0000
