data_image0
_chemical_formula_structural       Sn2PtS6
_chemical_formula_sum              "Sn2 Pt1 S6"
_cell_length_a       6.353448897074207
_cell_length_b       6.353448809625845
_cell_length_c       6.353448913219593
_cell_angle_alpha    59.99999987156433
_cell_angle_beta     60.000000051020955
_cell_angle_gamma    59.99999992757

_space_group_name_H-M_alt    "P 1"
_space_group_IT_number       1

loop_
  _space_group_symop_operation_xyz
  'x, y, z'

loop_
  _atom_site_type_symbol
  _atom_site_label
  _atom_site_symmetry_multiplicity
  _atom_site_fract_x
  _atom_site_fract_y
  _atom_site_fract_z
  _atom_site_occupancy
  Sn  Sn1       1.0  0.2499999955751211  0.2500000133954142  0.24999999550601446  1.0000
  Sn  Sn2       1.0  0.7500000133822163  0.7499999765726336  0.7499999908308866  1.0000
  Pt  Pt1       1.0  5.672809146169388e-09  0.9999999884338894  3.7573512882240354e-08  1.0000
  S   S1        1.0  0.25685908216004305  0.25685913552995393  0.7431408995779297  1.0000
  S   S2        1.0  0.743140883380337  0.7431408756426304  0.25685912304835434  1.0000
  S   S3        1.0  0.7431408799663581  0.2568591279734855  0.25685911389958316  1.0000
  S   S4        1.0  0.256859126089994  0.743140887054469  0.743140853488116  1.0000
  S   S5        1.0  0.2568591126255572  0.7431408927481156  0.25685913508381836  1.0000
  S   S6        1.0  0.7431408883092167  0.25685910493067277  0.7431408624266321  1.0000
