data_image0
_chemical_formula_structural       Sn2PtI6
_chemical_formula_sum              "Sn2 Pt1 I6"
_cell_length_a       7.589643993968712
_cell_length_b       7.589644039210541
_cell_length_c       7.589643920316439
_cell_angle_alpha    59.99999990614
_cell_angle_beta     59.999999848739186
_cell_angle_gamma    60.00000167555686

_space_group_name_H-M_alt    "P 1"
_space_group_IT_number       1

loop_
  _space_group_symop_operation_xyz
  'x, y, z'

loop_
  _atom_site_type_symbol
  _atom_site_label
  _atom_site_symmetry_multiplicity
  _atom_site_fract_x
  _atom_site_fract_y
  _atom_site_fract_z
  _atom_site_occupancy
  Sn  Sn1       1.0  0.24999994000062503  0.25000008575543603  0.25000003775579044  1.0000
  Sn  Sn2       1.0  0.7500000862867591  0.7499998828866898  0.7499999630890846  1.0000
  Pt  Pt1       1.0  1.6550996768735206e-08  9.6822319055174e-09  5.923426152059975e-11  1.0000
  I   I1        1.0  0.2510634338327321  0.25106358113805083  0.7489364877803031  1.0000
  I   I2        1.0  0.7489365334569198  0.7489364230055899  0.2510635248126806  1.0000
  I   I3        1.0  0.7489364866398283  0.2510635223392707  0.25106349344858503  1.0000
  I   I4        1.0  0.25106351859293274  0.7489364866454866  0.7489364885291915  1.0000
  I   I5        1.0  0.25106349247628124  0.748936448868839  0.2510635241044314  1.0000
  I   I6        1.0  0.7489364894896282  0.2510635568885072  0.7489364856139101  1.0000
