data_image0
_chemical_formula_structural       Sn2PO6
_chemical_formula_sum              "Sn2 P1 O6"
_cell_length_a       5.21596249170727
_cell_length_b       5.215962324941964
_cell_length_c       5.215962491193307
_cell_angle_alpha    59.99999906239478
_cell_angle_beta     60.000001240114756
_cell_angle_gamma    59.999999235373494

_space_group_name_H-M_alt    "P 1"
_space_group_IT_number       1

loop_
  _space_group_symop_operation_xyz
  'x, y, z'

loop_
  _atom_site_type_symbol
  _atom_site_label
  _atom_site_symmetry_multiplicity
  _atom_site_fract_x
  _atom_site_fract_y
  _atom_site_fract_z
  _atom_site_occupancy
  Sn  Sn1       1.0  0.24999982972515772  0.25000001624208745  0.2500000804180726  1.0000
  Sn  Sn2       1.0  0.7499999402999389  0.7499997646096941  0.7500000772282215  1.0000
  P   P1        1.0  0.9999999219804684  2.8176849334731982e-08  1.5337318438537126e-07  1.0000
  O   O1        1.0  0.23323805098847014  0.23323805980063353  0.7667619736033687  1.0000
  O   O2        1.0  0.7667617365395152  0.7667620803059829  0.23323801100159755  1.0000
  O   O3        1.0  0.7667619874188624  0.23323822052222237  0.23323788324954292  1.0000
  O   O4        1.0  0.23323816742056533  0.7667617740040036  0.7667619732351756  1.0000
  O   O5        1.0  0.23323819284484462  0.7667618039682117  0.23323789610641604  1.0000
  O   O6        1.0  0.7667619574057309  0.23323846997844136  0.7667618152937483  1.0000
