data_image0
_chemical_formula_structural       Sn2PbBr6
_chemical_formula_sum              "Sn2 Pb1 Br6"
_cell_length_a       7.3225507255477496
_cell_length_b       7.322550763795553
_cell_length_c       7.322550666383131
_cell_angle_alpha    60.000000603476835
_cell_angle_beta     60.000000413298814
_cell_angle_gamma    60.00000057922334

_space_group_name_H-M_alt    "P 1"
_space_group_IT_number       1

loop_
  _space_group_symop_operation_xyz
  'x, y, z'

loop_
  _atom_site_type_symbol
  _atom_site_label
  _atom_site_symmetry_multiplicity
  _atom_site_fract_x
  _atom_site_fract_y
  _atom_site_fract_z
  _atom_site_occupancy
  Sn  Sn1       1.0  0.24999993194890568  0.25000011026698316  0.25000003503226137  1.0000
  Sn  Sn2       1.0  0.7500000146930738  0.7499999628364541  0.7500000280693297  1.0000
  Pb  Pb1       1.0  4.55719097039002e-08  0.9999999531681552  0.9999999719514361  1.0000
  Br  Br1       1.0  0.2656014503061772  0.2656014559787318  0.7343985192940763  1.0000
  Br  Br2       1.0  0.7343985812512244  0.7343985468769384  0.26560142312520574  1.0000
  Br  Br3       1.0  0.7343984927912087  0.2656014713764047  0.26560148573172354  1.0000
  Br  Br4       1.0  0.2656014044254426  0.7343985749659784  0.7343985758593723  1.0000
  Br  Br5       1.0  0.2656014585268245  0.7343984957456038  0.2656014292869429  1.0000
  Br  Br6       1.0  0.7343986164844664  0.26560143351716725  0.7343985322987769  1.0000
