data_image0
_chemical_formula_structural       Sn2PdF6
_chemical_formula_sum              "Sn2 Pd1 F6"
_cell_length_a       5.6035738810946105
_cell_length_b       5.603573721802757
_cell_length_c       5.6035738077491155
_cell_angle_alpha    59.99999857769338
_cell_angle_beta     59.99999979373946
_cell_angle_gamma    59.99999894733052

_space_group_name_H-M_alt    "P 1"
_space_group_IT_number       1

loop_
  _space_group_symop_operation_xyz
  'x, y, z'

loop_
  _atom_site_type_symbol
  _atom_site_label
  _atom_site_symmetry_multiplicity
  _atom_site_fract_x
  _atom_site_fract_y
  _atom_site_fract_z
  _atom_site_occupancy
  Sn  Sn1       1.0  0.2500000567233642  0.24999993207232957  0.2499999734210762  1.0000
  Sn  Sn2       1.0  0.7499999889541953  0.7500000060393539  0.7500000076807921  1.0000
  Pd  Pd1       1.0  0.9999999748971997  1.9670846974590857e-08  0.9999999813010717  1.0000
  F   F1        1.0  0.2601387667001181  0.26013870441004255  0.7398612849905742  1.0000
  F   F2        1.0  0.7398612206542394  0.7398612664863852  0.26013876063320984  1.0000
  F   F3        1.0  0.739861209505534  0.2601387924454492  0.2601388079398294  1.0000
  F   F4        1.0  0.2601388010980786  0.7398612199783218  0.7398612106493814  1.0000
  F   F5        1.0  0.26013877620954573  0.7398612915503314  0.26013875975924916  1.0000
  F   F6        1.0  0.7398612053985182  0.2601387645864328  0.7398612211334573  1.0000
