data_image0
_chemical_formula_structural       Sn2PbS6
_chemical_formula_sum              "Sn2 Pb1 S6"
_cell_length_a       6.588098940104383
_cell_length_b       6.588098970985772
_cell_length_c       6.588098947869542
_cell_angle_alpha    60.000000796757696
_cell_angle_beta     60.00000018543867
_cell_angle_gamma    60.000000555426986

_space_group_name_H-M_alt    "P 1"
_space_group_IT_number       1

loop_
  _space_group_symop_operation_xyz
  'x, y, z'

loop_
  _atom_site_type_symbol
  _atom_site_label
  _atom_site_symmetry_multiplicity
  _atom_site_fract_x
  _atom_site_fract_y
  _atom_site_fract_z
  _atom_site_occupancy
  Sn  Sn1       1.0  0.250000016087531  0.2499999860928079  0.2500000121657883  1.0000
  Sn  Sn2       1.0  0.7500000133846146  0.7500000103311572  0.7500000127311023  1.0000
  Pb  Pb1       1.0  4.65090088157999e-08  0.9999999814097378  0.9999999556828555  1.0000
  S   S1        1.0  0.2736059061151097  0.2736059172436335  0.7263940920334748  1.0000
  S   S2        1.0  0.7263941135667903  0.7263940717442261  0.2736058488853893  1.0000
  S   S3        1.0  0.7263940919548707  0.2736059363874792  0.27360582686401774  1.0000
  S   S4        1.0  0.2736058852883852  0.7263941641419527  0.7263941128969311  1.0000
  S   S5        1.0  0.2736059001915013  0.7263940848119528  0.2736058789346426  1.0000
  S   S6        1.0  0.7263940271467807  0.27360584468706917  0.7263942562957562  1.0000
