data_image0
_chemical_formula_structural       Sn2PtBr6
_chemical_formula_sum              "Sn2 Pt1 Br6"
_cell_length_a       7.113159021177793
_cell_length_b       7.113159182850108
_cell_length_c       7.113159039776739
_cell_angle_alpha    59.99999907195516
_cell_angle_beta     60.00000022628837
_cell_angle_gamma    60.00000089778214

_space_group_name_H-M_alt    "P 1"
_space_group_IT_number       1

loop_
  _space_group_symop_operation_xyz
  'x, y, z'

loop_
  _atom_site_type_symbol
  _atom_site_label
  _atom_site_symmetry_multiplicity
  _atom_site_fract_x
  _atom_site_fract_y
  _atom_site_fract_z
  _atom_site_occupancy
  Sn  Sn1       1.0  0.2500000634735084  0.2499999566078314  0.24999998474375298  1.0000
  Sn  Sn2       1.0  0.7499999690539025  0.7500000712742797  0.7499998362572677  1.0000
  Pt  Pt1       1.0  7.77634395541083e-09  0.9999997623913832  8.071909381773383e-09  1.0000
  Br  Br1       1.0  0.24665826977293331  0.24665823655019503  0.7533417627585715  1.0000
  Br  Br2       1.0  0.7533417994833493  0.7533418515949681  0.24665821078234057  1.0000
  Br  Br3       1.0  0.7533416964035519  0.24665824342833004  0.24665837300021926  1.0000
  Br  Br4       1.0  0.24665819226920216  0.7533418653784483  0.7533417873458785  1.0000
  Br  Br5       1.0  0.246658209231315  0.7533418097012016  0.246658244611585  1.0000
  Br  Br6       1.0  0.7533417987660976  0.24665819924108814  0.7533417893192834  1.0000
