data_image0
_chemical_formula_structural       Sn2PbTe6
_chemical_formula_sum              "Sn2 Pb1 Te6"
_cell_length_a       7.577805367859868
_cell_length_b       7.577805133110402
_cell_length_c       7.577805206041161
_cell_angle_alpha    60.00000032243305
_cell_angle_beta     60.000000613434075
_cell_angle_gamma    59.9999999585334

_space_group_name_H-M_alt    "P 1"
_space_group_IT_number       1

loop_
  _space_group_symop_operation_xyz
  'x, y, z'

loop_
  _atom_site_type_symbol
  _atom_site_label
  _atom_site_symmetry_multiplicity
  _atom_site_fract_x
  _atom_site_fract_y
  _atom_site_fract_z
  _atom_site_occupancy
  Sn  Sn1       1.0  0.25000000012451884  0.25000006012129794  0.24999994807962223  1.0000
  Sn  Sn2       1.0  0.7500000106889538  0.7500000122763483  0.7499999442392331  1.0000
  Pb  Pb1       1.0  3.2483122516056265e-09  0.9999999628267926  0.9999999879302944  1.0000
  Te  Te1       1.0  0.2855637406533116  0.2855637521704187  0.714436264530384  1.0000
  Te  Te2       1.0  0.7144362681293447  0.7144362668917569  0.285563735969857  1.0000
  Te  Te3       1.0  0.7144362784884788  0.2855636998267479  0.28556376509809833  1.0000
  Te  Te4       1.0  0.2855637236154085  0.7144362432727872  0.7144363215907198  1.0000
  Te  Te5       1.0  0.2855637265372061  0.7144362448553647  0.28556375774126225  1.0000
  Te  Te6       1.0  0.7144362485530005  0.28556375642832055  0.7144362737730219  1.0000
