data_image0
_chemical_formula_structural       Sn2PbO6
_chemical_formula_sum              "Sn2 Pb1 O6"
_cell_length_a       5.6636658041242764
_cell_length_b       5.66366575013045
_cell_length_c       5.663665442649233
_cell_angle_alpha    59.99999886534233
_cell_angle_beta     59.99999944947709
_cell_angle_gamma    59.99999833730341

_space_group_name_H-M_alt    "P 1"
_space_group_IT_number       1

loop_
  _space_group_symop_operation_xyz
  'x, y, z'

loop_
  _atom_site_type_symbol
  _atom_site_label
  _atom_site_symmetry_multiplicity
  _atom_site_fract_x
  _atom_site_fract_y
  _atom_site_fract_z
  _atom_site_occupancy
  Sn  Sn1       1.0  0.2500000572426537  0.2499999533715077  0.24999976142223182  1.0000
  Sn  Sn2       1.0  0.7500000538457069  0.7500000547358824  0.7499998762309836  1.0000
  Pb  Pb1       1.0  0.9999999859758416  0.999999987025243  0.999999972889715  1.0000
  O   O1        1.0  0.2571980062458676  0.2571980088632262  0.7428021435464098  1.0000
  O   O2        1.0  0.7428020341033214  0.7428019668072573  0.2571980524338178  1.0000
  O   O3        1.0  0.742802010423677  0.25719794928166007  0.25719806027419545  1.0000
  O   O4        1.0  0.2571980023506696  0.7428020112516089  0.7428020264046267  1.0000
  O   O5        1.0  0.25719795571315596  0.7428020679114739  0.257198039687652  1.0000
  O   O6        1.0  0.7428019392638261  0.2571979401959091  0.7428021015248476  1.0000
