data_image0
_chemical_formula_structural       Sn2RuSe6
_chemical_formula_sum              "Sn2 Ru1 Se6"
_cell_length_a       6.672155503162439
_cell_length_b       6.672155425248095
_cell_length_c       6.672155452250154
_cell_angle_alpha    59.999998147892725
_cell_angle_beta     59.99999883983186
_cell_angle_gamma    59.99999909411188

_space_group_name_H-M_alt    "P 1"
_space_group_IT_number       1

loop_
  _space_group_symop_operation_xyz
  'x, y, z'

loop_
  _atom_site_type_symbol
  _atom_site_label
  _atom_site_symmetry_multiplicity
  _atom_site_fract_x
  _atom_site_fract_y
  _atom_site_fract_z
  _atom_site_occupancy
  Sn  Sn1       1.0  0.2500000250454653  0.25000003877319826  0.24999999722775712  1.0000
  Sn  Sn2       1.0  0.7499999697632523  0.7499999547862619  0.7500000472006789  1.0000
  Ru  Ru1       1.0  0.9999999879905982  0.9999999944931814  3.423713309761119e-08  1.0000
  Se  Se1       1.0  0.2587038296633933  0.2587038258895165  0.7412961912440902  1.0000
  Se  Se2       1.0  0.7412961785704117  0.7412961896972164  0.25870382946310105  1.0000
  Se  Se3       1.0  0.7412961887401922  0.2587038150059306  0.25870385342699276  1.0000
  Se  Se4       1.0  0.25870389141211025  0.7412961198141371  0.7412960892721504  1.0000
  Se  Se5       1.0  0.2587038175856157  0.7412961853776378  0.25870384820736786  1.0000
  Se  Se6       1.0  0.7412961171220592  0.2587038742636416  0.7412961018059514  1.0000
