data_image0
_chemical_formula_structural       Sn2ReO6
_chemical_formula_sum              "Sn2 Re1 O6"
_cell_length_a       5.613226005499183
_cell_length_b       5.613226159915206
_cell_length_c       5.613225752373149
_cell_angle_alpha    59.99999969087251
_cell_angle_beta     59.99999958554525
_cell_angle_gamma    59.99999826335862

_space_group_name_H-M_alt    "P 1"
_space_group_IT_number       1

loop_
  _space_group_symop_operation_xyz
  'x, y, z'

loop_
  _atom_site_type_symbol
  _atom_site_label
  _atom_site_symmetry_multiplicity
  _atom_site_fract_x
  _atom_site_fract_y
  _atom_site_fract_z
  _atom_site_occupancy
  Sn  Sn1       1.0  0.2499999968765813  0.25000010399615114  0.25000001277999745  1.0000
  Sn  Sn2       1.0  0.750000015047724  0.7500001461647242  0.7499999772113648  1.0000
  Re  Re1       1.0  8.830939194067929e-09  4.363780791225515e-09  5.3973871912701704e-08  1.0000
  O   O1        1.0  0.23988675657183883  0.23988672343202389  0.7601132137932586  1.0000
  O   O2        1.0  0.7601133218074855  0.7601132779932573  0.23988666068360318  1.0000
  O   O3        1.0  0.7601132593504266  0.23988665248906713  0.239886771278414  1.0000
  O   O4        1.0  0.23988666308454215  0.7601132922070446  0.7601132736694596  1.0000
  O   O5        1.0  0.2398867706082058  0.7601131538963664  0.23988674931166268  1.0000
  O   O6        1.0  0.7601132315370576  0.23988663806736074  0.7601132662315053  1.0000
