data_image0
_chemical_formula_structural       Sn2ReSe6
_chemical_formula_sum              "Sn2 Re1 Se6"
_cell_length_a       6.734222620592686
_cell_length_b       6.734222582959288
_cell_length_c       6.734222687424434
_cell_angle_alpha    59.99999965404225
_cell_angle_beta     59.999998958597665
_cell_angle_gamma    60.00000000174873

_space_group_name_H-M_alt    "P 1"
_space_group_IT_number       1

loop_
  _space_group_symop_operation_xyz
  'x, y, z'

loop_
  _atom_site_type_symbol
  _atom_site_label
  _atom_site_symmetry_multiplicity
  _atom_site_fract_x
  _atom_site_fract_y
  _atom_site_fract_z
  _atom_site_occupancy
  Sn  Sn1       1.0  0.24999999654737046  0.25000000240024034  0.25000001230807506  1.0000
  Sn  Sn2       1.0  0.749999988637678  0.7499999999259694  0.7500000173045795  1.0000
  Re  Re1       1.0  0.9999999674211683  0.0  4.301855889706213e-08  1.0000
  Se  Se1       1.0  0.2568170846257432  0.25681710148713444  0.7431829062664503  1.0000
  Se  Se2       1.0  0.7431829131682625  0.7431828990203874  0.2568170704325938  1.0000
  Se  Se3       1.0  0.7431828897469812  0.2568171064382621  0.25681710490136167  1.0000
  Se  Se4       1.0  0.25681713094403325  0.743182892250572  0.7431828538337598  1.0000
  Se  Se5       1.0  0.25681712397678336  0.7431829082050176  0.2568171005334995  1.0000
  Se  Se6       1.0  0.7431829087169581  0.2568170904838166  0.7431828818993058  1.0000
