data_image0
_chemical_formula_structural       Sn2RhS6
_chemical_formula_sum              "Sn2 Rh1 S6"
_cell_length_a       6.328148234078778
_cell_length_b       6.3281482703216785
_cell_length_c       6.328148144205239
_cell_angle_alpha    60.00000032771
_cell_angle_beta     60.000000035362596
_cell_angle_gamma    59.9999996250827

_space_group_name_H-M_alt    "P 1"
_space_group_IT_number       1

loop_
  _space_group_symop_operation_xyz
  'x, y, z'

loop_
  _atom_site_type_symbol
  _atom_site_label
  _atom_site_symmetry_multiplicity
  _atom_site_fract_x
  _atom_site_fract_y
  _atom_site_fract_z
  _atom_site_occupancy
  Sn  Sn1       1.0  0.25000002323269566  0.2499999934279605  0.25000003413691224  1.0000
  Sn  Sn2       1.0  0.7500000239507777  0.7500000189917257  0.7499999984740723  1.0000
  Rh  Rh1       1.0  9.657970241628418e-09  3.870784367864539e-09  0.9999999584703178  1.0000
  S   S1        1.0  0.2568721806968347  0.2568721480429759  0.7431278271575713  1.0000
  S   S2        1.0  0.7431278261597313  0.7431278101857298  0.25687215315716583  1.0000
  S   S3        1.0  0.7431277933401031  0.25687219535330635  0.2568721618263027  1.0000
  S   S4        1.0  0.2568721291909867  0.7431278789989306  0.7431278626385701  1.0000
  S   S5        1.0  0.2568721896264868  0.743127802612594  0.25687215885134007  1.0000
  S   S6        1.0  0.7431278349426881  0.25687215174532696  0.7431278398263431  1.0000
