data_image0
_chemical_formula_structural       Sn2RhO6
_chemical_formula_sum              "Sn2 Rh1 O6"
_cell_length_a       5.464594364693076
_cell_length_b       5.464594038006572
_cell_length_c       5.4645940711331455
_cell_angle_alpha    60.00000182473794
_cell_angle_beta     60.00000076423427
_cell_angle_gamma    60.000000117812014

_space_group_name_H-M_alt    "P 1"
_space_group_IT_number       1

loop_
  _space_group_symop_operation_xyz
  'x, y, z'

loop_
  _atom_site_type_symbol
  _atom_site_label
  _atom_site_symmetry_multiplicity
  _atom_site_fract_x
  _atom_site_fract_y
  _atom_site_fract_z
  _atom_site_occupancy
  Sn  Sn1       1.0  0.24999997927657297  0.2499998407845484  0.2500001018434415  1.0000
  Sn  Sn2       1.0  0.750000062877129  0.7499999459473742  0.7499999433715802  1.0000
  Rh  Rh1       1.0  0.9999999685384933  2.465360342766617e-08  5.2339143610333386e-09  1.0000
  O   O1        1.0  0.24772764910045925  0.2477275494801803  0.7522724353371418  1.0000
  O   O2        1.0  0.7522723163824653  0.752272416550678  0.24772762993232555  1.0000
  O   O3        1.0  0.7522723189914683  0.24772767309693797  0.24772758555944463  1.0000
  O   O4        1.0  0.24772758610624646  0.7522724677503785  0.7522723419760696  1.0000
  O   O5        1.0  0.24772762685945332  0.7522724116520794  0.2477276782402443  1.0000
  O   O6        1.0  0.7522724755437252  0.24772765075195677  0.7522723033218253  1.0000
