data_image0
_chemical_formula_structural       Sn2ReTe6
_chemical_formula_sum              "Sn2 Re1 Te6"
_cell_length_a       7.212905581094233
_cell_length_b       7.21290556170177
_cell_length_c       7.212905366627973
_cell_angle_alpha    60.000000688844
_cell_angle_beta     60.00000069756841
_cell_angle_gamma    59.99999850918649

_space_group_name_H-M_alt    "P 1"
_space_group_IT_number       1

loop_
  _space_group_symop_operation_xyz
  'x, y, z'

loop_
  _atom_site_type_symbol
  _atom_site_label
  _atom_site_symmetry_multiplicity
  _atom_site_fract_x
  _atom_site_fract_y
  _atom_site_fract_z
  _atom_site_occupancy
  Sn  Sn1       1.0  0.24999992788081385  0.24999996993928753  0.25000005940610154  1.0000
  Sn  Sn2       1.0  0.7500000117582591  0.7500000083013357  0.7499999663945228  1.0000
  Re  Re1       1.0  0.9999999977997976  5.942968505389799e-08  0.999999942270777  1.0000
  Te  Te1       1.0  0.2588153672823992  0.2588153440932757  0.7411846368856537  1.0000
  Te  Te2       1.0  0.7411846485358675  0.7411846409393097  0.2588153585206235  1.0000
  Te  Te3       1.0  0.7411846776869401  0.2588153152892734  0.2588153417615574  1.0000
  Te  Te4       1.0  0.2588153107054634  0.7411847087971055  0.7411846755588323  1.0000
  Te  Te5       1.0  0.2588153260442636  0.7411846669513689  0.25881533233943704  1.0000
  Te  Te6       1.0  0.7411847330144592  0.2588152892153686  0.741184679448402  1.0000
