data_image0
_chemical_formula_structural       Sn2SrCl6
_chemical_formula_sum              "Sn2 Sr1 Cl6"
_cell_length_a       7.033704378046811
_cell_length_b       7.033704542925666
_cell_length_c       7.033704727655146
_cell_angle_alpha    60.00000058673727
_cell_angle_beta     59.999998824899386
_cell_angle_gamma    59.99999802039027

_space_group_name_H-M_alt    "P 1"
_space_group_IT_number       1

loop_
  _space_group_symop_operation_xyz
  'x, y, z'

loop_
  _atom_site_type_symbol
  _atom_site_label
  _atom_site_symmetry_multiplicity
  _atom_site_fract_x
  _atom_site_fract_y
  _atom_site_fract_z
  _atom_site_occupancy
  Sn  Sn1       1.0  0.2499998387403352  0.25000017970140287  0.2499998886636149  1.0000
  Sn  Sn2       1.0  0.7500000725247666  0.749999919218654  0.7499997247945281  1.0000
  Sr  Sr1       1.0  2.3065846143711087e-08  2.4377519562593864e-08  0.9999999080354756  1.0000
  Cl  Cl1       1.0  0.26872898713673815  0.26872900774125447  0.7312710494549496  1.0000
  Cl  Cl2       1.0  0.7312710347034534  0.7312709170536562  0.2687291573599403  1.0000
  Cl  Cl3       1.0  0.7312710047209374  0.26872892176076424  0.2687291273859439  1.0000
  Cl  Cl4       1.0  0.268729059040117  0.7312709856216294  0.7312710103057383  1.0000
  Cl  Cl5       1.0  0.26872894795465085  0.7312710118933163  0.2687291169944087  1.0000
  Cl  Cl6       1.0  0.7312710266896644  0.2687290347892011  0.7312710169314706  1.0000
