data_image0
_chemical_formula_structural       Sn2SeBr6
_chemical_formula_sum              "Sn2 Se1 Br6"
_cell_length_a       7.250599968551976
_cell_length_b       7.2505996381879445
_cell_length_c       7.250599830550597
_cell_angle_alpha    59.999998159385875
_cell_angle_beta     60.00000011777596
_cell_angle_gamma    59.99999971994221

_space_group_name_H-M_alt    "P 1"
_space_group_IT_number       1

loop_
  _space_group_symop_operation_xyz
  'x, y, z'

loop_
  _atom_site_type_symbol
  _atom_site_label
  _atom_site_symmetry_multiplicity
  _atom_site_fract_x
  _atom_site_fract_y
  _atom_site_fract_z
  _atom_site_occupancy
  Sn  Sn1       1.0  0.2499999844056917  0.250000119043613  0.24999994338209017  1.0000
  Sn  Sn2       1.0  0.7500000619197444  0.749999973690703  0.7500000875050788  1.0000
  Se  Se1       1.0  6.14998509722857e-08  0.999999920609312  0.9999999910158678  1.0000
  Br  Br1       1.0  0.2535015847233105  0.2535016882478792  0.746498386817673  1.0000
  Br  Br2       1.0  0.7464983326214545  0.7464983757706548  0.25350157534372586  1.0000
  Br  Br3       1.0  0.7464983788157881  0.2535017353039184  0.25350156947681357  1.0000
  Br  Br4       1.0  0.25350162550976557  0.7464982493239274  0.7464984426781887  1.0000
  Br  Br5       1.0  0.2535016264631245  0.7464982875355894  0.25350164027246175  1.0000
  Br  Br6       1.0  0.7464983432291349  0.25350164810651193  0.7464983640409957  1.0000
