data_image0
_chemical_formula_structural       Sn2SeO6
_chemical_formula_sum              "Sn2 Se1 O6"
_cell_length_a       5.351858980259199
_cell_length_b       5.35185902589879
_cell_length_c       5.351859006713399
_cell_angle_alpha    59.99999945681581
_cell_angle_beta     59.999999110024916
_cell_angle_gamma    59.99999857304266

_space_group_name_H-M_alt    "P 1"
_space_group_IT_number       1

loop_
  _space_group_symop_operation_xyz
  'x, y, z'

loop_
  _atom_site_type_symbol
  _atom_site_label
  _atom_site_symmetry_multiplicity
  _atom_site_fract_x
  _atom_site_fract_y
  _atom_site_fract_z
  _atom_site_occupancy
  Sn  Sn1       1.0  0.25000000752252366  0.24999998521718614  0.24999993311370852  1.0000
  Sn  Sn2       1.0  0.7499999772586192  0.7499999556515584  0.749999935974688  1.0000
  Se  Se1       1.0  0.9999999120631824  0.9999999725386312  0.9999998727166421  1.0000
  O   O1        1.0  0.2402878214228705  0.2402878228942469  0.7597121778030632  1.0000
  O   O2        1.0  0.7597122124139346  0.7597122232430844  0.24028786637200555  1.0000
  O   O3        1.0  0.7597122302927771  0.24028783110005136  0.24028785175264192  1.0000
  O   O4        1.0  0.24028779188494345  0.7597121852874614  0.7597122542340901  1.0000
  O   O5        1.0  0.2402878424386276  0.7597122197965531  0.24028781421523118  1.0000
  O   O6        1.0  0.7597122112089352  0.24028780574474964  0.7597122565116076  1.0000
