data_image0
_chemical_formula_structural       Sn2SeI6
_chemical_formula_sum              "Sn2 Se1 I6"
_cell_length_a       7.77749920277138
_cell_length_b       7.777499264669075
_cell_length_c       7.777499235369843
_cell_angle_alpha    60.00000024615695
_cell_angle_beta     60.0000000468358
_cell_angle_gamma    60.00000063548155

_space_group_name_H-M_alt    "P 1"
_space_group_IT_number       1

loop_
  _space_group_symop_operation_xyz
  'x, y, z'

loop_
  _atom_site_type_symbol
  _atom_site_label
  _atom_site_symmetry_multiplicity
  _atom_site_fract_x
  _atom_site_fract_y
  _atom_site_fract_z
  _atom_site_occupancy
  Sn  Sn1       1.0  0.2499999547734831  0.250000025394974  0.24999999407863613  1.0000
  Sn  Sn2       1.0  0.7500000494280639  0.7499998415503973  0.7500000237142478  1.0000
  Se  Se1       1.0  1.4411832252902321e-08  0.9999999968505433  0.9999999943688123  1.0000
  I   I1        1.0  0.26249569482803725  0.26249579765954284  0.7375042562463774  1.0000
  I   I2        1.0  0.737504289020355  0.7375042283333929  0.2624957642018807  1.0000
  I   I3        1.0  0.7375042329950305  0.26249579320820293  0.2624957249817205  1.0000
  I   I4        1.0  0.2624957792267251  0.7375042501067448  0.7375042391890811  1.0000
  I   I5        1.0  0.2624957505821697  0.7375042576588535  0.2624957517339131  1.0000
  I   I6        1.0  0.7375042374345947  0.26249580927701943  0.7375042500159712  1.0000
