data_image0
_chemical_formula_structural       Sn2ScI6
_chemical_formula_sum              "Sn2 Sc1 I6"
_cell_length_a       7.845595449268784
_cell_length_b       7.845595389633249
_cell_length_c       7.8455953943435075
_cell_angle_alpha    60.0000006186091
_cell_angle_beta     60.000000055239134
_cell_angle_gamma    60.00000022108651

_space_group_name_H-M_alt    "P 1"
_space_group_IT_number       1

loop_
  _space_group_symop_operation_xyz
  'x, y, z'

loop_
  _atom_site_type_symbol
  _atom_site_label
  _atom_site_symmetry_multiplicity
  _atom_site_fract_x
  _atom_site_fract_y
  _atom_site_fract_z
  _atom_site_occupancy
  Sn  Sn1       1.0  0.2499999867127498  0.2500000005178329  0.25000000251992127  1.0000
  Sn  Sn2       1.0  0.7499999888010159  0.7499999906260756  0.7500000088888962  1.0000
  Sc  Sc1       1.0  5.813166853013614e-09  0.9999999781451537  5.471638544626822e-09  1.0000
  I   I1        1.0  0.25439985018259775  0.25439985177774443  0.7456001506292985  1.0000
  I   I2        1.0  0.7456001705992926  0.7456001580988896  0.25439983642669706  1.0000
  I   I3        1.0  0.7456001632442076  0.25439984218873807  0.25439984004141586  1.0000
  I   I4        1.0  0.2543998400548571  0.7456001583215334  0.7456001680867771  1.0000
  I   I5        1.0  0.2543998490604432  0.7456001560000451  0.2543998470762347  1.0000
  I   I6        1.0  0.7456001466118763  0.25439985855977015  0.7456001412707522  1.0000
