data_image0
_chemical_formula_structural       Sn2SCl6
_chemical_formula_sum              "Sn2 S1 Cl6"
_cell_length_a       6.758428714866949
_cell_length_b       6.758428663983059
_cell_length_c       6.758428608074672
_cell_angle_alpha    59.999999168254476
_cell_angle_beta     60.00000015160447
_cell_angle_gamma    59.999998288507044

_space_group_name_H-M_alt    "P 1"
_space_group_IT_number       1

loop_
  _space_group_symop_operation_xyz
  'x, y, z'

loop_
  _atom_site_type_symbol
  _atom_site_label
  _atom_site_symmetry_multiplicity
  _atom_site_fract_x
  _atom_site_fract_y
  _atom_site_fract_z
  _atom_site_occupancy
  Sn  Sn1       1.0  0.2500000959878657  0.24999995782059847  0.24999986021583262  1.0000
  Sn  Sn2       1.0  0.7499998682830128  0.7500000202478931  0.7500001017995521  1.0000
  S   S1        1.0  0.9999999701435833  1.2685219131644111e-08  0.9999999612373143  1.0000
  Cl  Cl1       1.0  0.25192387948494954  0.25192385766058883  0.748076176249276  1.0000
  Cl  Cl2       1.0  0.7480761079621421  0.7480761892705149  0.2519238285247285  1.0000
  Cl  Cl3       1.0  0.7480761799245181  0.2519238609411255  0.25192385067611595  1.0000
  Cl  Cl4       1.0  0.2519238708775374  0.7480761189395383  0.7480761589048948  1.0000
  Cl  Cl5       1.0  0.25192391027449906  0.7480761498315173  0.2519238560581756  1.0000
  Cl  Cl6       1.0  0.748076113984568  0.25192384817088664  0.7480761902854051  1.0000
