data_image0
_chemical_formula_structural       Sn2SrF6
_chemical_formula_sum              "Sn2 Sr1 F6"
_cell_length_a       5.881860540875284
_cell_length_b       5.88186051791726
_cell_length_c       5.881860555938309
_cell_angle_alpha    59.999997520781044
_cell_angle_beta     59.99999804331041
_cell_angle_gamma    59.99999779616535

_space_group_name_H-M_alt    "P 1"
_space_group_IT_number       1

loop_
  _space_group_symop_operation_xyz
  'x, y, z'

loop_
  _atom_site_type_symbol
  _atom_site_label
  _atom_site_symmetry_multiplicity
  _atom_site_fract_x
  _atom_site_fract_y
  _atom_site_fract_z
  _atom_site_occupancy
  Sn  Sn1       1.0  0.25000002304421687  0.25000000435021197  0.2500000128338778  1.0000
  Sn  Sn2       1.0  0.7500000961404832  0.7500000380375232  0.750000015904557  1.0000
  Sr  Sr1       1.0  0.9999999741217251  1.8740166196482286e-08  0.9999999933682004  1.0000
  F   F1        1.0  0.26780685521229963  0.2678068088918703  0.7321931381627981  1.0000
  F   F2        1.0  0.7321931516370743  0.7321931876865752  0.26780676563086975  1.0000
  F   F3        1.0  0.7321931528096971  0.2678069143049783  0.2678068022480102  1.0000
  F   F4        1.0  0.26780675076474664  0.7321931447406856  0.7321932086567718  1.0000
  F   F5        1.0  0.2678068383040529  0.732193126312519  0.2678068640173399  1.0000
  F   F6        1.0  0.7321931691816113  0.2678067682361328  0.7321931873811931  1.0000
