data_image0
_chemical_formula_structural       Sn2ScCl6
_chemical_formula_sum              "Sn2 Sc1 Cl6"
_cell_length_a       6.801392793692738
_cell_length_b       6.801392657956165
_cell_length_c       6.801392869836268
_cell_angle_alpha    59.999999216987455
_cell_angle_beta     59.99999809290162
_cell_angle_gamma    59.99999989825455

_space_group_name_H-M_alt    "P 1"
_space_group_IT_number       1

loop_
  _space_group_symop_operation_xyz
  'x, y, z'

loop_
  _atom_site_type_symbol
  _atom_site_label
  _atom_site_symmetry_multiplicity
  _atom_site_fract_x
  _atom_site_fract_y
  _atom_site_fract_z
  _atom_site_occupancy
  Sn  Sn1       1.0  0.2500000267696975  0.24999997362172266  0.25000001281844736  1.0000
  Sn  Sn2       1.0  0.7499999345769565  0.749999965883332  0.7500000946934781  1.0000
  Sc  Sc1       1.0  8.279505219402739e-08  0.9999999909963682  0.9999999998614656  1.0000
  Cl  Cl1       1.0  0.2531644581496081  0.25316447407481263  0.7468355637914523  1.0000
  Cl  Cl2       1.0  0.7468354574610168  0.7468354600280612  0.2531645090078088  1.0000
  Cl  Cl3       1.0  0.7468354980381139  0.2531645330191162  0.2531645071304261  1.0000
  Cl  Cl4       1.0  0.25316453725292415  0.7468355055259025  0.7468354477264063  1.0000
  Cl  Cl5       1.0  0.2531645744732982  0.7468355084769265  0.25316450842488625  1.0000
  Cl  Cl6       1.0  0.7468354245295926  0.25316459309352285  0.7468353683706741  1.0000
