data_image0
_chemical_formula_structural       Sn2SBr6
_chemical_formula_sum              "Sn2 S1 Br6"
_cell_length_a       7.0728779104181845
_cell_length_b       7.0728777642132075
_cell_length_c       7.072877806447243
_cell_angle_alpha    60.00000035413755
_cell_angle_beta     59.99999937704926
_cell_angle_gamma    60.000000192049924

_space_group_name_H-M_alt    "P 1"
_space_group_IT_number       1

loop_
  _space_group_symop_operation_xyz
  'x, y, z'

loop_
  _atom_site_type_symbol
  _atom_site_label
  _atom_site_symmetry_multiplicity
  _atom_site_fract_x
  _atom_site_fract_y
  _atom_site_fract_z
  _atom_site_occupancy
  Sn  Sn1       1.0  0.24999989778927034  0.2499999799201207  0.25000000732359073  1.0000
  Sn  Sn2       1.0  0.7499999448465324  0.7500001648693488  0.749999915165121  1.0000
  S   S1        1.0  4.2826094525867494e-08  8.658038035128338e-09  0.9999999714302301  1.0000
  Br  Br1       1.0  0.2574144574930428  0.2574143547612804  0.742585596118175  1.0000
  Br  Br2       1.0  0.7425855789779405  0.7425855562611694  0.2574144509614762  1.0000
  Br  Br3       1.0  0.7425856565957996  0.25741434783486633  0.2574144774577752  1.0000
  Br  Br4       1.0  0.25741442067257303  0.7425855926249131  0.7425855910585828  1.0000
  Br  Br5       1.0  0.25741441192012654  0.7425856204577086  0.2574144200893244  1.0000
  Br  Br6       1.0  0.7425855891604305  0.2574143771451191  0.7425855759460219  1.0000
