data_image0
_chemical_formula_structural       Sn2SiO6
_chemical_formula_sum              "Sn2 Si1 O6"
_cell_length_a       5.219306630794635
_cell_length_b       5.2193065268425345
_cell_length_c       5.219306659641555
_cell_angle_alpha    59.99999966611741
_cell_angle_beta     60.00000016543571
_cell_angle_gamma    60.0000010329198

_space_group_name_H-M_alt    "P 1"
_space_group_IT_number       1

loop_
  _space_group_symop_operation_xyz
  'x, y, z'

loop_
  _atom_site_type_symbol
  _atom_site_label
  _atom_site_symmetry_multiplicity
  _atom_site_fract_x
  _atom_site_fract_y
  _atom_site_fract_z
  _atom_site_occupancy
  Sn  Sn1       1.0  0.250000106521008  0.24999994484736526  0.249999872505548  1.0000
  Sn  Sn2       1.0  0.7500000675068248  0.7500000199208292  0.7499999363339084  1.0000
  Si  Si1       1.0  0.9999999811393186  0.9999999835740354  0.9999999601644239  1.0000
  O   O1        1.0  0.24110500130802692  0.24110499878750208  0.7588950973789438  1.0000
  O   O2        1.0  0.7588949031219231  0.7588951044280997  0.24110501078327232  1.0000
  O   O3        1.0  0.758894987460719  0.2411049994129268  0.24110502826353414  1.0000
  O   O4        1.0  0.24110483989700168  0.7588949301567685  0.7588951611905934  1.0000
  O   O5        1.0  0.24110499838187108  0.7588949536697845  0.24110496966025236  1.0000
  O   O6        1.0  0.7588950355960279  0.2411050462969022  0.7588949701594196  1.0000
