data_image0
_chemical_formula_structural       Sn2ScBr6
_chemical_formula_sum              "Sn2 Sc1 Br6"
_cell_length_a       7.214825279966195
_cell_length_b       7.214825275222063
_cell_length_c       7.214825378677299
_cell_angle_alpha    59.99999967667272
_cell_angle_beta     59.999999483221934
_cell_angle_gamma    60.00000147557525

_space_group_name_H-M_alt    "P 1"
_space_group_IT_number       1

loop_
  _space_group_symop_operation_xyz
  'x, y, z'

loop_
  _atom_site_type_symbol
  _atom_site_label
  _atom_site_symmetry_multiplicity
  _atom_site_fract_x
  _atom_site_fract_y
  _atom_site_fract_z
  _atom_site_occupancy
  Sn  Sn1       1.0  0.2500000605783323  0.2499999418282204  0.24999999628035455  1.0000
  Sn  Sn2       1.0  0.7500000210569951  0.7499999426148621  0.7499999288389033  1.0000
  Sc  Sc1       1.0  0.9999999844004385  0.9999999507713632  5.459065802808451e-08  1.0000
  Br  Br1       1.0  0.2537321177173094  0.25373218140557807  0.7462678438581968  1.0000
  Br  Br2       1.0  0.7462678580909459  0.7462678812791178  0.2537321697969345  1.0000
  Br  Br3       1.0  0.7462677913606248  0.253732199095113  0.2537322011949083  1.0000
  Br  Br4       1.0  0.25373222316646543  0.7462678194535649  0.7462678013084653  1.0000
  Br  Br5       1.0  0.253732154695104  0.7462678337687704  0.2537321960617207  1.0000
  Br  Br6       1.0  0.7462677913507743  0.25373225098393454  0.7462678089662803  1.0000
