data_image0
_chemical_formula_structural       Sn2SrI6
_chemical_formula_sum              "Sn2 Sr1 I6"
_cell_length_a       8.124718212638008
_cell_length_b       8.12471826153629
_cell_length_c       8.124717999004522
_cell_angle_alpha    59.99999902655262
_cell_angle_beta     59.99999919741454
_cell_angle_gamma    59.999997643035954

_space_group_name_H-M_alt    "P 1"
_space_group_IT_number       1

loop_
  _space_group_symop_operation_xyz
  'x, y, z'

loop_
  _atom_site_type_symbol
  _atom_site_label
  _atom_site_symmetry_multiplicity
  _atom_site_fract_x
  _atom_site_fract_y
  _atom_site_fract_z
  _atom_site_occupancy
  Sn  Sn1       1.0  0.24999993924211236  0.2500000175081034  0.25000007128497725  1.0000
  Sn  Sn2       1.0  0.7499999566191383  0.7499999982568067  0.750000124771428  1.0000
  Sr  Sr1       1.0  3.1577018508284037e-09  3.316347542391946e-08  0.9999998439884724  1.0000
  I   I1        1.0  0.27270498019316847  0.272704889101974  0.7272950381260143  1.0000
  I   I2        1.0  0.7272950198925205  0.7272950271725188  0.27270489463124736  1.0000
  I   I3        1.0  0.7272949936253265  0.27270500707568196  0.2727049651492611  1.0000
  I   I4        1.0  0.2727049320371527  0.7272950855681897  0.7272950643323483  1.0000
  I   I5        1.0  0.2727050588130177  0.7272950479973637  0.272704936670633  1.0000
  I   I6        1.0  0.7272951157377857  0.27270488636628964  0.7272950696615378  1.0000
