data_image0
_chemical_formula_structural       Sn2SiSe6
_chemical_formula_sum              "Sn2 Si1 Se6"
_cell_length_a       6.643303421247201
_cell_length_b       6.643303449524209
_cell_length_c       6.64330328804845
_cell_angle_alpha    60.00000033741232
_cell_angle_beta     60.00000084346522
_cell_angle_gamma    60.00000018275304

_space_group_name_H-M_alt    "P 1"
_space_group_IT_number       1

loop_
  _space_group_symop_operation_xyz
  'x, y, z'

loop_
  _atom_site_type_symbol
  _atom_site_label
  _atom_site_symmetry_multiplicity
  _atom_site_fract_x
  _atom_site_fract_y
  _atom_site_fract_z
  _atom_site_occupancy
  Sn  Sn1       1.0  0.25000000632165387  0.25000003671848137  0.24999999238575887  1.0000
  Sn  Sn2       1.0  0.7499999739329735  0.7500000106022272  0.7500000614920813  1.0000
  Si  Si1       1.0  8.058094247897664e-09  3.3184405803082976e-08  0.9999999447574192  1.0000
  Se  Se1       1.0  0.2540251766739516  0.2540251749181528  0.7459748239478274  1.0000
  Se  Se2       1.0  0.7459748046531255  0.7459747857543861  0.2540251899277346  1.0000
  Se  Se3       1.0  0.7459747954332074  0.25402519188079636  0.254025198871822  1.0000
  Se  Se4       1.0  0.25402520613704876  0.7459747706353206  0.745974800949811  1.0000
  Se  Se5       1.0  0.25402520617738805  0.7459748251929138  0.25402516390179675  1.0000
  Se  Se6       1.0  0.7459748230796155  0.2540251741947648  0.7459748262198103  1.0000
