data_image0
_chemical_formula_structural       Sn2ScF6
_chemical_formula_sum              "Sn2 Sc1 F6"
_cell_length_a       5.764485603039043
_cell_length_b       5.764485208188973
_cell_length_c       5.7644855807227255
_cell_angle_alpha    59.99999875701751
_cell_angle_beta     59.999998369458986
_cell_angle_gamma    59.999999290308146

_space_group_name_H-M_alt    "P 1"
_space_group_IT_number       1

loop_
  _space_group_symop_operation_xyz
  'x, y, z'

loop_
  _atom_site_type_symbol
  _atom_site_label
  _atom_site_symmetry_multiplicity
  _atom_site_fract_x
  _atom_site_fract_y
  _atom_site_fract_z
  _atom_site_occupancy
  Sn  Sn1       1.0  0.25000004670857146  0.2499999574291374  0.25000000144072254  1.0000
  Sn  Sn2       1.0  0.7499999424408111  0.7500000146382083  0.7500000285197043  1.0000
  Sc  Sc1       1.0  0.9999999946988277  0.9999999978753609  0.9999999863653041  1.0000
  F   F1        1.0  0.2452668383027939  0.245266812301211  0.7547331851148266  1.0000
  F   F2        1.0  0.7547332186890895  0.7547332086328283  0.24526680210384375  1.0000
  F   F3        1.0  0.7547331478620286  0.24526682625093185  0.24526682323878465  1.0000
  F   F4        1.0  0.24526681534734585  0.7547331755613561  0.7547331805325332  1.0000
  F   F5        1.0  0.24526680976440415  0.7547332073759631  0.2452667963286849  1.0000
  F   F6        1.0  0.7547331948024555  0.24526679656096503  0.7547332221315334  1.0000
