data_image0
_chemical_formula_structural       Sn2SeS6
_chemical_formula_sum              "Sn2 Se1 S6"
_cell_length_a       6.4848813327763235
_cell_length_b       6.4848814776987735
_cell_length_c       6.484881418455385
_cell_angle_alpha    59.99999893182249
_cell_angle_beta     59.999999502053114
_cell_angle_gamma    59.999998831804284

_space_group_name_H-M_alt    "P 1"
_space_group_IT_number       1

loop_
  _space_group_symop_operation_xyz
  'x, y, z'

loop_
  _atom_site_type_symbol
  _atom_site_label
  _atom_site_symmetry_multiplicity
  _atom_site_fract_x
  _atom_site_fract_y
  _atom_site_fract_z
  _atom_site_occupancy
  Sn  Sn1       1.0  0.2500000436723521  0.2500000629297125  0.25000004126288794  1.0000
  Sn  Sn2       1.0  0.7499999604772368  0.7500000433657366  0.7499999594821928  1.0000
  Se  Se1       1.0  4.548720506852418e-08  0.9999999490073769  0.9999999534071657  1.0000
  S   S1        1.0  0.24753891178288986  0.2475390058719378  0.7524609801353483  1.0000
  S   S2        1.0  0.7524611510742142  0.7524610097699596  0.24753891630298847  1.0000
  S   S3        1.0  0.7524610647682417  0.24753889492584483  0.24753897087812604  1.0000
  S   S4        1.0  0.24753889758507427  0.7524610376169611  0.7524611761926207  1.0000
  S   S5        1.0  0.24753888682946643  0.7524610547878163  0.24753888856488915  1.0000
  S   S6        1.0  0.7524610548570876  0.2475389344134624  0.7524611094359008  1.0000
