data_image0
_chemical_formula_structural       Sn2SeF6
_chemical_formula_sum              "Sn2 Se1 F6"
_cell_length_a       5.881547931048492
_cell_length_b       5.881547612158452
_cell_length_c       5.881548194200792
_cell_angle_alpha    59.9999958296361
_cell_angle_beta     59.999995709527276
_cell_angle_gamma    59.99999626472783

_space_group_name_H-M_alt    "P 1"
_space_group_IT_number       1

loop_
  _space_group_symop_operation_xyz
  'x, y, z'

loop_
  _atom_site_type_symbol
  _atom_site_label
  _atom_site_symmetry_multiplicity
  _atom_site_fract_x
  _atom_site_fract_y
  _atom_site_fract_z
  _atom_site_occupancy
  Sn  Sn1       1.0  0.25000000870749123  0.24999995630745717  0.2500000534870767  1.0000
  Sn  Sn2       1.0  0.7499999707326327  0.7499999938634596  0.7499999114562991  1.0000
  Se  Se1       1.0  1.0637329507718239e-07  0.9999999812588368  5.4797422955761696e-08  1.0000
  F   F1        1.0  0.24807643370163843  0.24807635521260632  0.7519236352833915  1.0000
  F   F2        1.0  0.7519235139894852  0.7519235782994987  0.24807648308156882  1.0000
  F   F3        1.0  0.7519236004198665  0.24807639860922523  0.24807647982425302  1.0000
  F   F4        1.0  0.24807647184805193  0.7519235911263695  0.7519234869321884  1.0000
  F   F5        1.0  0.24807640936730388  0.7519236387917713  0.248076421740523  1.0000
  F   F6        1.0  0.7519235155744061  0.24807649254372338  0.7519234883709338  1.0000
