data_image0
_chemical_formula_structural       Sn2SiTe6
_chemical_formula_sum              "Sn2 Si1 Te6"
_cell_length_a       7.208106183886415
_cell_length_b       7.2081061850266925
_cell_length_c       7.208106167483306
_cell_angle_alpha    59.99999982848594
_cell_angle_beta     60.00000020096394
_cell_angle_gamma    59.99999933909783

_space_group_name_H-M_alt    "P 1"
_space_group_IT_number       1

loop_
  _space_group_symop_operation_xyz
  'x, y, z'

loop_
  _atom_site_type_symbol
  _atom_site_label
  _atom_site_symmetry_multiplicity
  _atom_site_fract_x
  _atom_site_fract_y
  _atom_site_fract_z
  _atom_site_occupancy
  Sn  Sn1       1.0  0.24999997094661694  0.2500000089786073  0.25000003702613655  1.0000
  Sn  Sn2       1.0  0.7499999494097852  0.7500000133428494  0.7499999622445598  1.0000
  Si  Si1       1.0  0.9999999610673954  2.5486823995359787e-08  0.9999999983989284  1.0000
  Te  Te1       1.0  0.2589319541583906  0.25893194617348436  0.7410680471613272  1.0000
  Te  Te2       1.0  0.7410680555183561  0.7410680965374303  0.2589319749447774  1.0000
  Te  Te3       1.0  0.7410680838150555  0.25893187737008305  0.2589319141951331  1.0000
  Te  Te4       1.0  0.258931968792258  0.7410680701900232  0.7410680660420715  1.0000
  Te  Te5       1.0  0.25893192552632327  0.7410680683982354  0.2589319158717189  1.0000
  Te  Te6       1.0  0.7410681283914142  0.2589318944539648  0.741068082423439  1.0000
