data_image0
_chemical_formula_structural       Sn2SF6
_chemical_formula_sum              "Sn2 S1 F6"
_cell_length_a       5.671002922775956
_cell_length_b       5.671002545038377
_cell_length_c       5.671002982006177
_cell_angle_alpha    59.99999910762822
_cell_angle_beta     59.99999965775515
_cell_angle_gamma    59.99999995020519

_space_group_name_H-M_alt    "P 1"
_space_group_IT_number       1

loop_
  _space_group_symop_operation_xyz
  'x, y, z'

loop_
  _atom_site_type_symbol
  _atom_site_label
  _atom_site_symmetry_multiplicity
  _atom_site_fract_x
  _atom_site_fract_y
  _atom_site_fract_z
  _atom_site_occupancy
  Sn  Sn1       1.0  0.2499999634197291  0.24999998937187873  0.2500000177464691  1.0000
  Sn  Sn2       1.0  0.7500000446359507  0.7499999875525972  0.7499999628058326  1.0000
  S   S1        1.0  0.9999999957230598  0.9999999395294633  4.295387671677555e-08  1.0000
  F   F1        1.0  0.2474155171318027  0.24741547932761382  0.7525845115734737  1.0000
  F   F2        1.0  0.752584603487239  0.7525845386304428  0.2474154080505659  1.0000
  F   F3        1.0  0.7525845154561479  0.24741548997227955  0.24741547936529615  1.0000
  F   F4        1.0  0.24741542046973397  0.7525845323050984  0.7525845480792277  1.0000
  F   F5        1.0  0.24741544263728166  0.7525845573794702  0.24741548485629294  1.0000
  F   F6        1.0  0.7525844846499526  0.24741549081385195  0.752584533949583  1.0000
