data_image0
_chemical_formula_structural       Sn2SO6
_chemical_formula_sum              "Sn2 S1 O6"
_cell_length_a       5.253764695683337
_cell_length_b       5.253764660206621
_cell_length_c       5.253764553876728
_cell_angle_alpha    59.99999952228498
_cell_angle_beta     59.99999912226194
_cell_angle_gamma    59.99999788469202

_space_group_name_H-M_alt    "P 1"
_space_group_IT_number       1

loop_
  _space_group_symop_operation_xyz
  'x, y, z'

loop_
  _atom_site_type_symbol
  _atom_site_label
  _atom_site_symmetry_multiplicity
  _atom_site_fract_x
  _atom_site_fract_y
  _atom_site_fract_z
  _atom_site_occupancy
  Sn  Sn1       1.0  0.2500000092271601  0.249999948329981  0.25000005435927364  1.0000
  Sn  Sn2       1.0  0.7500000076988514  0.7499999708734352  0.7500000149575353  1.0000
  S   S1        1.0  0.9999999874566144  4.662351628334108e-09  2.4877884712617245e-08  1.0000
  O   O1        1.0  0.22530123936134572  0.2253011803548194  0.7746987463678754  1.0000
  O   O2        1.0  0.7746988056910468  0.7746988390891547  0.22530114646503635  1.0000
  O   O3        1.0  0.7746988035328323  0.22530123495108978  0.22530116930528438  1.0000
  O   O4        1.0  0.2253012287324047  0.7746987635123024  0.7746987994168054  1.0000
  O   O5        1.0  0.22530112612950873  0.7746988765466609  0.22530126022324598  1.0000
  O   O6        1.0  0.7746988370461344  0.22530121050141097  0.7746987786939774  1.0000
