data_image0
_chemical_formula_structural       Sn2SI6
_chemical_formula_sum              "Sn2 S1 I6"
_cell_length_a       7.598588893095507
_cell_length_b       7.598588811636841
_cell_length_c       7.5985889689894135
_cell_angle_alpha    59.999999474105955
_cell_angle_beta     59.99999974673528
_cell_angle_gamma    59.99999941952055

_space_group_name_H-M_alt    "P 1"
_space_group_IT_number       1

loop_
  _space_group_symop_operation_xyz
  'x, y, z'

loop_
  _atom_site_type_symbol
  _atom_site_label
  _atom_site_symmetry_multiplicity
  _atom_site_fract_x
  _atom_site_fract_y
  _atom_site_fract_z
  _atom_site_occupancy
  Sn  Sn1       1.0  0.2499999531301378  0.25000000616178125  0.24999998467598888  1.0000
  Sn  Sn2       1.0  0.7499999878527216  0.7500000023672864  0.7499998386343197  1.0000
  S   S1        1.0  0.9999999896391675  0.9999999854937486  0.9999999940090686  1.0000
  I   I1        1.0  0.26402992163933753  0.2640299293749406  0.7359700737812545  1.0000
  I   I2        1.0  0.7359701006052755  0.7359700678714874  0.264029996170733  1.0000
  I   I3        1.0  0.7359700984090557  0.26402985596244  0.26402998145073747  1.0000
  I   I4        1.0  0.26402996604796525  0.7359701058242624  0.7359700903890439  1.0000
  I   I5        1.0  0.26402989736741295  0.7359700873806277  0.2640299612907736  1.0000
  I   I6        1.0  0.7359700864098562  0.26402996144358293  0.7359700797334198  1.0000
