data_image0
_chemical_formula_structural       Sn2SrBr6
_chemical_formula_sum              "Sn2 Sr1 Br6"
_cell_length_a       7.402788668941124
_cell_length_b       7.402788435131718
_cell_length_c       7.402788814270371
_cell_angle_alpha    59.9999989870547
_cell_angle_beta     59.999998927641734
_cell_angle_gamma    59.99999923422152

_space_group_name_H-M_alt    "P 1"
_space_group_IT_number       1

loop_
  _space_group_symop_operation_xyz
  'x, y, z'

loop_
  _atom_site_type_symbol
  _atom_site_label
  _atom_site_symmetry_multiplicity
  _atom_site_fract_x
  _atom_site_fract_y
  _atom_site_fract_z
  _atom_site_occupancy
  Sn  Sn1       1.0  0.24999994765922587  0.24999980193705054  0.25000005853477825  1.0000
  Sn  Sn2       1.0  0.7499999755348545  0.7500000890937344  0.7499999919242736  1.0000
  Sr  Sr1       1.0  1.7165879172529338e-09  4.6324242410005044e-08  0.9999999422085285  1.0000
  Br  Br1       1.0  0.27022563352025664  0.27022558321056345  0.7297744159004135  1.0000
  Br  Br2       1.0  0.7297743642287784  0.7297743789610237  0.27022560088518577  1.0000
  Br  Br3       1.0  0.7297744433210566  0.27022559660597584  0.27022559177346644  1.0000
  Br  Br4       1.0  0.2702256053964205  0.7297744466330363  0.7297743752043068  1.0000
  Br  Br5       1.0  0.2702256110508669  0.7297744870193481  0.2702256354297675  1.0000
  Br  Br6       1.0  0.7297744223360488  0.27022556945516246  0.7297743866292276  1.0000
