data_image0
_chemical_formula_structural       Sn2SeCl6
_chemical_formula_sum              "Sn2 Se1 Cl6"
_cell_length_a       6.828227712326806
_cell_length_b       6.828227787997549
_cell_length_c       6.828227921768392
_cell_angle_alpha    60.000000812702844
_cell_angle_beta     60.000001434671915
_cell_angle_gamma    59.999999843545865

_space_group_name_H-M_alt    "P 1"
_space_group_IT_number       1

loop_
  _space_group_symop_operation_xyz
  'x, y, z'

loop_
  _atom_site_type_symbol
  _atom_site_label
  _atom_site_symmetry_multiplicity
  _atom_site_fract_x
  _atom_site_fract_y
  _atom_site_fract_z
  _atom_site_occupancy
  Sn  Sn1       1.0  0.2499999456588979  0.2500000138211896  0.2500000348406258  1.0000
  Sn  Sn2       1.0  0.7499998497198056  0.7500000235270725  0.7500002272082925  1.0000
  Se  Se1       1.0  0.9999999485146617  9.865073385104758e-08  2.4746093371323437e-08  1.0000
  Cl  Cl1       1.0  0.2522204192395332  0.2522203602562831  0.7477795837626379  1.0000
  Cl  Cl2       1.0  0.7477795961833152  0.7477796663300768  0.25222030417554053  1.0000
  Cl  Cl3       1.0  0.747779679287812  0.25222040851488203  0.2522202792009734  1.0000
  Cl  Cl4       1.0  0.25222045099297863  0.7477795068651955  0.7477795834792351  1.0000
  Cl  Cl5       1.0  0.25222035044152663  0.7477796754359067  0.25222038261571716  1.0000
  Cl  Cl6       1.0  0.7477797668060154  0.2522202435314709  0.7477795770515204  1.0000
