data_image0
_chemical_formula_structural       Sn2SiS6
_chemical_formula_sum              "Sn2 Si1 S6"
_cell_length_a       6.376301142121171
_cell_length_b       6.376301271126785
_cell_length_c       6.376301421665743
_cell_angle_alpha    59.99999940247044
_cell_angle_beta     59.99999897794334
_cell_angle_gamma    60.000000172852545

_space_group_name_H-M_alt    "P 1"
_space_group_IT_number       1

loop_
  _space_group_symop_operation_xyz
  'x, y, z'

loop_
  _atom_site_type_symbol
  _atom_site_label
  _atom_site_symmetry_multiplicity
  _atom_site_fract_x
  _atom_site_fract_y
  _atom_site_fract_z
  _atom_site_occupancy
  Sn  Sn1       1.0  0.2500000543274301  0.2500000405982643  0.24999998649662689  1.0000
  Sn  Sn2       1.0  0.7500000475978584  0.7499999681326837  0.7499999591387236  1.0000
  Si  Si1       1.0  0.9999999582200189  3.841552705450456e-08  6.911944043622478e-08  1.0000
  S   S1        1.0  0.2500005991454044  0.25000060745810526  0.7499993646581958  1.0000
  S   S2        1.0  0.7499993725219553  0.749999362857315  0.25000059317174705  1.0000
  S   S3        1.0  0.7499993817312952  0.25000060716387307  0.2500006268274032  1.0000
  S   S4        1.0  0.25000059974080135  0.749999355468442  0.7499993911057085  1.0000
  S   S5        1.0  0.25000059702008187  0.7499993571584055  0.2500006730587617  1.0000
  S   S6        1.0  0.749999355109962  0.2500006880672928  0.7499993700028251  1.0000
