data_image0
_chemical_formula_structural       Sn2TaS6
_chemical_formula_sum              "Sn2 Ta1 S6"
_cell_length_a       6.421103574767572
_cell_length_b       6.421103473392624
_cell_length_c       6.42110354350689
_cell_angle_alpha    60.00000080775679
_cell_angle_beta     60.000000229503335
_cell_angle_gamma    60.00000043710089

_space_group_name_H-M_alt    "P 1"
_space_group_IT_number       1

loop_
  _space_group_symop_operation_xyz
  'x, y, z'

loop_
  _atom_site_type_symbol
  _atom_site_label
  _atom_site_symmetry_multiplicity
  _atom_site_fract_x
  _atom_site_fract_y
  _atom_site_fract_z
  _atom_site_occupancy
  Sn  Sn1       1.0  0.2499999957200119  0.2499999980178955  0.2499999756059972  1.0000
  Sn  Sn2       1.0  0.7500000104100029  0.7500000322011763  0.7499999739874985  1.0000
  Ta  Ta1       1.0  0.9999999833790532  2.2888492984322497e-08  0.9999999812925802  1.0000
  S   S1        1.0  0.2622626890183806  0.2622627150749246  0.7377373123187488  1.0000
  S   S2        1.0  0.7377373044519523  0.7377372560155407  0.2622627557092197  1.0000
  S   S3        1.0  0.7377373039061781  0.2622626656820444  0.2622626892407312  1.0000
  S   S4        1.0  0.26226268807440295  0.7377373206674156  0.7377373096080281  1.0000
  S   S5        1.0  0.2622627096055968  0.7377372820642082  0.2622627133018014  1.0000
  S   S6        1.0  0.7377373111476218  0.26226270428525217  0.7377372882916505  1.0000
