data_image0
_chemical_formula_structural       Sn2TiSe6
_chemical_formula_sum              "Sn2 Ti1 Se6"
_cell_length_a       6.73454210878731
_cell_length_b       6.734542076779026
_cell_length_c       6.734541877657025
_cell_angle_alpha    60.00000019379202
_cell_angle_beta     60.00000074056939
_cell_angle_gamma    60.00000112692441

_space_group_name_H-M_alt    "P 1"
_space_group_IT_number       1

loop_
  _space_group_symop_operation_xyz
  'x, y, z'

loop_
  _atom_site_type_symbol
  _atom_site_label
  _atom_site_symmetry_multiplicity
  _atom_site_fract_x
  _atom_site_fract_y
  _atom_site_fract_z
  _atom_site_occupancy
  Sn  Sn1       1.0  0.24999988998606928  0.25000002073574257  0.2499999772506356  1.0000
  Sn  Sn2       1.0  0.7500000260053965  0.7500000331096056  0.7499999330990244  1.0000
  Ti  Ti1       1.0  0.9999999967966718  0.9999999581721647  0.9999999764842401  1.0000
  Se  Se1       1.0  0.25755938082797625  0.2575593981838845  0.7424406026074858  1.0000
  Se  Se2       1.0  0.7424406318047966  0.7424406229266363  0.2575593619120904  1.0000
  Se  Se3       1.0  0.7424405900268696  0.2575594290350295  0.2575594499668374  1.0000
  Se  Se4       1.0  0.2575594125263541  0.742440581163881  0.7424406423539963  1.0000
  Se  Se5       1.0  0.25755938662195055  0.7424406029376593  0.25755943507770696  1.0000
  Se  Se6       1.0  0.7424406849489067  0.2575593545218072  0.7424406164366281  1.0000
