data_image0
_chemical_formula_structural       Sn2TiI6
_chemical_formula_sum              "Sn2 Ti1 I6"
_cell_length_a       7.789984379174865
_cell_length_b       7.789984442389799
_cell_length_c       7.789984478010024
_cell_angle_alpha    59.99999998300463
_cell_angle_beta     60.000001094979375
_cell_angle_gamma    60.00000027224925

_space_group_name_H-M_alt    "P 1"
_space_group_IT_number       1

loop_
  _space_group_symop_operation_xyz
  'x, y, z'

loop_
  _atom_site_type_symbol
  _atom_site_label
  _atom_site_symmetry_multiplicity
  _atom_site_fract_x
  _atom_site_fract_y
  _atom_site_fract_z
  _atom_site_occupancy
  Sn  Sn1       1.0  0.2499999335430919  0.25000001122860505  0.25000006038243466  1.0000
  Sn  Sn2       1.0  0.7500000412532472  0.750000085568564  0.7500000387450454  1.0000
  Ti  Ti1       1.0  0.9999999472515915  0.9999999937111824  0.9999999127019483  1.0000
  I   I1        1.0  0.2479442930766903  0.24794425581910923  0.7520556993723108  1.0000
  I   I2        1.0  0.752055778998419  0.7520557403569718  0.24794417036040006  1.0000
  I   I3        1.0  0.7520556593636781  0.2479443368550077  0.24794432648724718  1.0000
  I   I4        1.0  0.24794418874965352  0.7520557442201167  0.7520557681044806  1.0000
  I   I5        1.0  0.24794437144654968  0.7520556488614776  0.24794429634645376  1.0000
  I   I6        1.0  0.7520557878319172  0.24794417908871952  0.7520557268630864  1.0000
