data_image0
_chemical_formula_structural       Sn2TeO6
_chemical_formula_sum              "Sn2 Te1 O6"
_cell_length_a       5.564593458397188
_cell_length_b       5.564593343762998
_cell_length_c       5.564593292922062
_cell_angle_alpha    59.99999855744845
_cell_angle_beta     59.999997303063715
_cell_angle_gamma    59.99999934770085

_space_group_name_H-M_alt    "P 1"
_space_group_IT_number       1

loop_
  _space_group_symop_operation_xyz
  'x, y, z'

loop_
  _atom_site_type_symbol
  _atom_site_label
  _atom_site_symmetry_multiplicity
  _atom_site_fract_x
  _atom_site_fract_y
  _atom_site_fract_z
  _atom_site_occupancy
  Sn  Sn1       1.0  0.2499999021791347  0.2500001808794125  0.2499999668268271  1.0000
  Sn  Sn2       1.0  0.7499999802906931  0.7499999703885694  0.7500001701327983  1.0000
  Te  Te1       1.0  1.720845976592338e-08  4.401920632332707e-09  1.7743449669729027e-09  1.0000
  O   O1        1.0  0.2451569712329686  0.24515694941738805  0.7548430937923923  1.0000
  O   O2        1.0  0.7548431852560962  0.7548430147689744  0.245156863120603  1.0000
  O   O3        1.0  0.754842958317066  0.24515703291159485  0.24515688232782326  1.0000
  O   O4        1.0  0.24515698741232503  0.7548430655333424  0.7548430625175827  1.0000
  O   O5        1.0  0.24515694053039636  0.7548430201046473  0.24515689429896742  1.0000
  O   O6        1.0  0.7548430622585997  0.24515677020585325  0.7548430736504947  1.0000
