data_image0
_chemical_formula_structural       Sn2TiO6
_chemical_formula_sum              "Sn2 Ti1 O6"
_cell_length_a       5.323678136448057
_cell_length_b       5.323678218430544
_cell_length_c       5.323678327171382
_cell_angle_alpha    59.99999915039467
_cell_angle_beta     59.999999415472885
_cell_angle_gamma    59.99999909713202

_space_group_name_H-M_alt    "P 1"
_space_group_IT_number       1

loop_
  _space_group_symop_operation_xyz
  'x, y, z'

loop_
  _atom_site_type_symbol
  _atom_site_label
  _atom_site_symmetry_multiplicity
  _atom_site_fract_x
  _atom_site_fract_y
  _atom_site_fract_z
  _atom_site_occupancy
  Sn  Sn1       1.0  0.24999978479433016  0.25000033526359783  0.25000023313407205  1.0000
  Sn  Sn2       1.0  0.7499999119605215  0.750000087866778  0.7500001357288665  1.0000
  Ti  Ti1       1.0  0.9999999813549401  2.990729858440451e-08  5.823449735315149e-08  1.0000
  O   O1        1.0  0.25740032507239397  0.25740014877637946  0.7425996329488649  1.0000
  O   O2        1.0  0.7425998562773035  0.7425995818850024  0.257400133572565  1.0000
  O   O3        1.0  0.7425995561038363  0.2574003487600125  0.25740009098594463  1.0000
  O   O4        1.0  0.25740044635479936  0.7425996257608828  0.7425997989584995  1.0000
  O   O5        1.0  0.2574001364425318  0.7425997658523171  0.25740034489292896  1.0000
  O   O6        1.0  0.7426000095003196  0.2574000775365748  0.7425995539026137  1.0000
