data_image0
_chemical_formula_structural       Sn2TiTe6
_chemical_formula_sum              "Sn2 Ti1 Te6"
_cell_length_a       7.226162617355946
_cell_length_b       7.226162587252828
_cell_length_c       7.22616265812775
_cell_angle_alpha    59.99999920703512
_cell_angle_beta     60.00000068190377
_cell_angle_gamma    60.00000020637821

_space_group_name_H-M_alt    "P 1"
_space_group_IT_number       1

loop_
  _space_group_symop_operation_xyz
  'x, y, z'

loop_
  _atom_site_type_symbol
  _atom_site_label
  _atom_site_symmetry_multiplicity
  _atom_site_fract_x
  _atom_site_fract_y
  _atom_site_fract_z
  _atom_site_occupancy
  Sn  Sn1       1.0  0.25000003740963156  0.24999997198971818  0.2499999934179625  1.0000
  Sn  Sn2       1.0  0.7499999703164246  0.7500000396950945  0.7499999436797593  1.0000
  Ti  Ti1       1.0  0.9999999920102782  1.6350281214878286e-16  0.9999999790853744  1.0000
  Te  Te1       1.0  0.26221951041065955  0.26221949589947896  0.7377804992806382  1.0000
  Te  Te2       1.0  0.7377804720224528  0.7377805293443401  0.262219525331813  1.0000
  Te  Te3       1.0  0.7377804346568173  0.2622195297644999  0.2622195371757009  1.0000
  Te  Te4       1.0  0.2622195697930501  0.7377804581920498  0.7377804618593594  1.0000
  Te  Te5       1.0  0.26221951048693093  0.7377804893966695  0.26221953678085164  1.0000
  Te  Te6       1.0  0.7377805064723275  0.2622194850008726  0.7377805222850122  1.0000
