data_image0
_chemical_formula_structural       Sn2TiCl6
_chemical_formula_sum              "Sn2 Ti1 Cl6"
_cell_length_a       6.742265511438942
_cell_length_b       6.742265529627657
_cell_length_c       6.742265442675162
_cell_angle_alpha    60.00000079953324
_cell_angle_beta     60.000001657683605
_cell_angle_gamma    59.99999991906922

_space_group_name_H-M_alt    "P 1"
_space_group_IT_number       1

loop_
  _space_group_symop_operation_xyz
  'x, y, z'

loop_
  _atom_site_type_symbol
  _atom_site_label
  _atom_site_symmetry_multiplicity
  _atom_site_fract_x
  _atom_site_fract_y
  _atom_site_fract_z
  _atom_site_occupancy
  Sn  Sn1       1.0  0.24999993856326258  0.25000016917955414  0.2499999476461545  1.0000
  Sn  Sn2       1.0  0.7499998634122395  0.7499998608581502  0.7500002477233434  1.0000
  Ti  Ti1       1.0  0.9999999197289371  1.380553909515378e-07  0.9999998924992426  1.0000
  Cl  Cl1       1.0  0.24784772241391828  0.24784777447805048  0.7521522513624685  1.0000
  Cl  Cl2       1.0  0.7521523064776554  0.7521521810824017  0.24784768980590163  1.0000
  Cl  Cl3       1.0  0.7521523047167491  0.2478477973352003  0.24784766398635008  1.0000
  Cl  Cl4       1.0  0.2478477839269177  0.7521521382435502  0.752152278061359  1.0000
  Cl  Cl5       1.0  0.24784776866280725  0.752152251251779  0.247847692545174  1.0000
  Cl  Cl6       1.0  0.7521523888837847  0.24784769340956234  0.7521523365801627  1.0000
