data_image0
_chemical_formula_structural       Sn2TaO6
_chemical_formula_sum              "Sn2 Ta1 O6"
_cell_length_a       5.625555958614451
_cell_length_b       5.625555835358855
_cell_length_c       5.625555525832019
_cell_angle_alpha    60.00000216005473
_cell_angle_beta     60.000002159053885
_cell_angle_gamma    59.99999996294185

_space_group_name_H-M_alt    "P 1"
_space_group_IT_number       1

loop_
  _space_group_symop_operation_xyz
  'x, y, z'

loop_
  _atom_site_type_symbol
  _atom_site_label
  _atom_site_symmetry_multiplicity
  _atom_site_fract_x
  _atom_site_fract_y
  _atom_site_fract_z
  _atom_site_occupancy
  Sn  Sn1       1.0  0.250000332937413  0.24999990514960668  0.24999970259126367  1.0000
  Sn  Sn2       1.0  0.750000107586118  0.7499999875874644  0.7499996910682748  1.0000
  Ta  Ta1       1.0  2.210189822231318e-08  0.999999989114454  0.9999998948460994  1.0000
  O   O1        1.0  0.2510185223116146  0.25101863807716324  0.7489816746566246  1.0000
  O   O2        1.0  0.7489814038563455  0.7489814614852792  0.25101876867953526  1.0000
  O   O3        1.0  0.7489812031313103  0.2510185455557726  0.2510186894128835  1.0000
  O   O4        1.0  0.25101859005540306  0.7489814233801257  0.748981382665743  1.0000
  O   O5        1.0  0.25101851547551896  0.7489814250892943  0.2510186513110371  1.0000
  O   O6        1.0  0.7489812913109503  0.2510186200454212  0.7489814754140274  1.0000
