data_image0
_chemical_formula_structural       Sn2TiF6
_chemical_formula_sum              "Sn2 Ti1 F6"
_cell_length_a       5.836597449873908
_cell_length_b       5.836597406070429
_cell_length_c       5.836597721912833
_cell_angle_alpha    59.9999991759618
_cell_angle_beta     60.00000023586937
_cell_angle_gamma    60.00000118440729

_space_group_name_H-M_alt    "P 1"
_space_group_IT_number       1

loop_
  _space_group_symop_operation_xyz
  'x, y, z'

loop_
  _atom_site_type_symbol
  _atom_site_label
  _atom_site_symmetry_multiplicity
  _atom_site_fract_x
  _atom_site_fract_y
  _atom_site_fract_z
  _atom_site_occupancy
  Sn  Sn1       1.0  0.2500000178533249  0.24999997508166877  0.2499999537261111  1.0000
  Sn  Sn2       1.0  0.7500000307965529  0.7500000469515385  0.7500000173060094  1.0000
  Ti  Ti1       1.0  4.120653450435937e-08  0.9999999832128929  0.9999999603770561  1.0000
  F   F1        1.0  0.2342828941528941  0.23428279117230463  0.765717141307775  1.0000
  F   F2        1.0  0.7657171211457275  0.7657171469253629  0.234282890081069  1.0000
  F   F3        1.0  0.7657170761312926  0.23428294076793582  0.23428290159847667  1.0000
  F   F4        1.0  0.23428286009038482  0.7657170980523773  0.7657171223941703  1.0000
  F   F5        1.0  0.23428282532059014  0.7657171797378961  0.23428286485250802  1.0000
  F   F6        1.0  0.7657171182351513  0.23428285488564005  0.7657171318715917  1.0000
