data_image0
_chemical_formula_structural       Sn2TeSe6
_chemical_formula_sum              "Sn2 Te1 Se6"
_cell_length_a       6.694756709400403
_cell_length_b       6.6947567579214775
_cell_length_c       6.694756789065873
_cell_angle_alpha    60.00000069895078
_cell_angle_beta     60.00000073265129
_cell_angle_gamma    60.000000700867545

_space_group_name_H-M_alt    "P 1"
_space_group_IT_number       1

loop_
  _space_group_symop_operation_xyz
  'x, y, z'

loop_
  _atom_site_type_symbol
  _atom_site_label
  _atom_site_symmetry_multiplicity
  _atom_site_fract_x
  _atom_site_fract_y
  _atom_site_fract_z
  _atom_site_occupancy
  Sn  Sn1       1.0  0.24999997049866007  0.25000008129353135  0.249999953266833  1.0000
  Sn  Sn2       1.0  0.7500000057015712  0.749999976786873  0.7500000044991066  1.0000
  Te  Te1       1.0  0.9999999805222051  0.9999999963411819  8.580893847856452e-09  1.0000
  Se  Se1       1.0  0.29403727987464573  0.2940372711594943  0.7059627484386353  1.0000
  Se  Se2       1.0  0.7059627086442224  0.7059627137445482  0.2940372591743478  1.0000
  Se  Se3       1.0  0.7059627180179407  0.29403731263213073  0.2940372709284841  1.0000
  Se  Se4       1.0  0.2940372921040576  0.7059626850777754  0.7059627448730083  1.0000
  Se  Se5       1.0  0.2940373486441803  0.7059626773601929  0.29403726194410507  1.0000
  Se  Se6       1.0  0.7059627024900189  0.29403728010271396  0.7059627415251366  1.0000
