data_image0
_chemical_formula_structural       Sn2VTe6
_chemical_formula_sum              "Sn2 V1 Te6"
_cell_length_a       7.135160271400186
_cell_length_b       7.135160270847682
_cell_length_c       7.135160266155886
_cell_angle_alpha    59.99999985398036
_cell_angle_beta     59.99999934510461
_cell_angle_gamma    60.00000007103765

_space_group_name_H-M_alt    "P 1"
_space_group_IT_number       1

loop_
  _space_group_symop_operation_xyz
  'x, y, z'

loop_
  _atom_site_type_symbol
  _atom_site_label
  _atom_site_symmetry_multiplicity
  _atom_site_fract_x
  _atom_site_fract_y
  _atom_site_fract_z
  _atom_site_occupancy
  Sn  Sn1       1.0  0.24999992791884973  0.25000007287902987  0.24999997514525638  1.0000
  Sn  Sn2       1.0  0.7499999733334382  0.7499999800446401  0.7500000088069776  1.0000
  V   V1        1.0  1.3142932284068073e-08  0.9999999897010454  3.0812746063887e-08  1.0000
  Te  Te1       1.0  0.26096775425587704  0.26096773905195036  0.7390322452068229  1.0000
  Te  Te2       1.0  0.7390322671956314  0.7390322057326957  0.26096775233645564  1.0000
  Te  Te3       1.0  0.7390322904976624  0.2609677385557118  0.2609677616739115  1.0000
  Te  Te4       1.0  0.2609678007212964  0.7390322251103513  0.7390322616204436  1.0000
  Te  Te5       1.0  0.2609677507757741  0.7390322488234947  0.2609677474155482  1.0000
  Te  Te6       1.0  0.7390322212088  0.26096780066719044  0.7390322211066677  1.0000
