data_image0
_chemical_formula_structural       Sn2VF6
_chemical_formula_sum              "Sn2 V1 F6"
_cell_length_a       5.713541266787803
_cell_length_b       5.713541433829054
_cell_length_c       5.713541405880494
_cell_angle_alpha    60.000000559882906
_cell_angle_beta     60.0000003569652
_cell_angle_gamma    59.99999881329213

_space_group_name_H-M_alt    "P 1"
_space_group_IT_number       1

loop_
  _space_group_symop_operation_xyz
  'x, y, z'

loop_
  _atom_site_type_symbol
  _atom_site_label
  _atom_site_symmetry_multiplicity
  _atom_site_fract_x
  _atom_site_fract_y
  _atom_site_fract_z
  _atom_site_occupancy
  Sn  Sn1       1.0  0.2499999930495097  0.24999998070778368  0.25000002780640596  1.0000
  Sn  Sn2       1.0  0.7499999831274051  0.7500000514460697  0.750000025018193  1.0000
  V   V1        1.0  0.9999999580075312  4.7158820795716615e-08  0.999999913405881  1.0000
  F   F1        1.0  0.24493059137565848  0.24493062639526747  0.7550693667201844  1.0000
  F   F2        1.0  0.7550693451380667  0.7550693307331916  0.24493065943776324  1.0000
  F   F3        1.0  0.7550694888998354  0.24493051185027986  0.24493054615500007  1.0000
  F   F4        1.0  0.24493054304869055  0.7550694924369968  0.755069434959559  1.0000
  F   F5        1.0  0.24493063369580523  0.7550693723348013  0.24493060532690472  1.0000
  F   F6        1.0  0.7550694543921139  0.24493058479365426  0.7550694308051197  1.0000
