data_image0
_chemical_formula_structural       Sn2VS6
_chemical_formula_sum              "Sn2 V1 S6"
_cell_length_a       6.339864588097997
_cell_length_b       6.339864571221998
_cell_length_c       6.339864647733414
_cell_angle_alpha    60.00000038555939
_cell_angle_beta     60.000000367773296
_cell_angle_gamma    60.00000061956757

_space_group_name_H-M_alt    "P 1"
_space_group_IT_number       1

loop_
  _space_group_symop_operation_xyz
  'x, y, z'

loop_
  _atom_site_type_symbol
  _atom_site_label
  _atom_site_symmetry_multiplicity
  _atom_site_fract_x
  _atom_site_fract_y
  _atom_site_fract_z
  _atom_site_occupancy
  Sn  Sn1       1.0  0.24999996037107935  0.24999995736056724  0.2499999959701485  1.0000
  Sn  Sn2       1.0  0.7499999643957651  0.7499999937860791  0.7499999595510689  1.0000
  V   V1        1.0  7.70830639433266e-09  9.659077749110322e-09  2.444004357285963e-08  1.0000
  S   S1        1.0  0.2505679857229946  0.25056799735392665  0.7494320100135132  1.0000
  S   S2        1.0  0.749432009485519  0.7494320484516802  0.25056798283376686  1.0000
  S   S3        1.0  0.7494320496271768  0.25056799422710335  0.25056801669842915  1.0000
  S   S4        1.0  0.25056798738047215  0.7494320245330871  0.7494320239782174  1.0000
  S   S5        1.0  0.25056799081574166  0.7494320039884969  0.250568025849278  1.0000
  S   S6        1.0  0.7494320388150478  0.2505679877262762  0.7494319752549602  1.0000
