data_image0
_chemical_formula_structural       Sn2VCl6
_chemical_formula_sum              "Sn2 V1 Cl6"
_cell_length_a       6.674664352843858
_cell_length_b       6.674664167738696
_cell_length_c       6.674664446636697
_cell_angle_alpha    59.99999757916618
_cell_angle_beta     59.999999051506734
_cell_angle_gamma    59.99999824161393

_space_group_name_H-M_alt    "P 1"
_space_group_IT_number       1

loop_
  _space_group_symop_operation_xyz
  'x, y, z'

loop_
  _atom_site_type_symbol
  _atom_site_label
  _atom_site_symmetry_multiplicity
  _atom_site_fract_x
  _atom_site_fract_y
  _atom_site_fract_z
  _atom_site_occupancy
  Sn  Sn1       1.0  0.2500000378148607  0.25000000846651443  0.24999997798063486  1.0000
  Sn  Sn2       1.0  0.7500000632932994  0.7499999942059693  0.7499999056970115  1.0000
  V   V1        1.0  0.9999999936737308  2.935865464865286e-08  3.645326736146975e-07  1.0000
  Cl  Cl1       1.0  0.24894799123365305  0.2489480240449508  0.751052051426871  1.0000
  Cl  Cl2       1.0  0.7510519763695802  0.7510519639482022  0.2489480546649675  1.0000
  Cl  Cl3       1.0  0.7510519835457967  0.24894795720682353  0.24894806567852368  1.0000
  Cl  Cl4       1.0  0.24894814230981496  0.7510518362852209  0.7510517559007444  1.0000
  Cl  Cl5       1.0  0.2489479687633264  0.7510520321105966  0.24894803800661405  1.0000
  Cl  Cl6       1.0  0.7510518566640062  0.248948154053503  0.7510517764040332  1.0000
