data_image0
_chemical_formula_structural       Sn2VBr6
_chemical_formula_sum              "Sn2 V1 Br6"
_cell_length_a       7.100914114896667
_cell_length_b       7.1009141969746254
_cell_length_c       7.100914125065404
_cell_angle_alpha    59.999999630766276
_cell_angle_beta     59.99999893450939
_cell_angle_gamma    59.99999820279163

_space_group_name_H-M_alt    "P 1"
_space_group_IT_number       1

loop_
  _space_group_symop_operation_xyz
  'x, y, z'

loop_
  _atom_site_type_symbol
  _atom_site_label
  _atom_site_symmetry_multiplicity
  _atom_site_fract_x
  _atom_site_fract_y
  _atom_site_fract_z
  _atom_site_occupancy
  Sn  Sn1       1.0  0.2500000131325212  0.24999991055353046  0.25000013171673835  1.0000
  Sn  Sn2       1.0  0.7499999456511713  0.7500000714404245  0.7499998412030603  1.0000
  V   V1        1.0  2.374932050439601e-08  1.1900917857090594e-07  0.9999998891892068  1.0000
  Br  Br1       1.0  0.2491061972919089  0.2491061426697749  0.7508937781821368  1.0000
  Br  Br2       1.0  0.7508937523437789  0.750893778957205  0.24910631821612397  1.0000
  Br  Br3       1.0  0.7508938126701343  0.2491061586038696  0.2491062020835465  1.0000
  Br  Br4       1.0  0.2491062067397052  0.7508938561607272  0.7508938015926736  1.0000
  Br  Br5       1.0  0.24910618731405318  0.7508938030434786  0.24910621626446436  1.0000
  Br  Br6       1.0  0.750893863502377  0.24910615652845483  0.7508938246536412  1.0000
