data_image0
_chemical_formula_structural       Sn2VI6
_chemical_formula_sum              "Sn2 V1 I6"
_cell_length_a       7.621947494028862
_cell_length_b       7.621947372925983
_cell_length_c       7.621947441340044
_cell_angle_alpha    60.00000012130121
_cell_angle_beta     60.00000030647874
_cell_angle_gamma    60.000000230431624

_space_group_name_H-M_alt    "P 1"
_space_group_IT_number       1

loop_
  _space_group_symop_operation_xyz
  'x, y, z'

loop_
  _atom_site_type_symbol
  _atom_site_label
  _atom_site_symmetry_multiplicity
  _atom_site_fract_x
  _atom_site_fract_y
  _atom_site_fract_z
  _atom_site_occupancy
  Sn  Sn1       1.0  0.24999991634090726  0.2500000252877862  0.2500000090429184  1.0000
  Sn  Sn2       1.0  0.749999980382139  0.7500002044126466  0.749999956070457  1.0000
  V   V1        1.0  1.9558087374137815e-08  0.9999999276910265  4.867945389357916e-08  1.0000
  I   I1        1.0  0.2481716741990789  0.24817154405882944  0.7518283785055536  1.0000
  I   I2        1.0  0.7518284435466539  0.7518283498065931  0.24817157972595089  1.0000
  I   I3        1.0  0.7518283771638083  0.2481715917162414  0.24817165978029243  1.0000
  I   I4        1.0  0.2481715960612885  0.7518284130229408  0.7518284241707045  1.0000
  I   I5        1.0  0.24817159722432472  0.7518283947144824  0.24817156164262524  1.0000
  I   I6        1.0  0.7518284040211464  0.24817154414318973  0.751828385110862  1.0000
