data_image0
_chemical_formula_structural       Sn2VO6
_chemical_formula_sum              "Sn2 V1 O6"
_cell_length_a       5.490912677061239
_cell_length_b       5.49091284035178
_cell_length_c       5.490912729270698
_cell_angle_alpha    59.99999955820963
_cell_angle_beta     59.999999085751
_cell_angle_gamma    59.99999946424725

_space_group_name_H-M_alt    "P 1"
_space_group_IT_number       1

loop_
  _space_group_symop_operation_xyz
  'x, y, z'

loop_
  _atom_site_type_symbol
  _atom_site_label
  _atom_site_symmetry_multiplicity
  _atom_site_fract_x
  _atom_site_fract_y
  _atom_site_fract_z
  _atom_site_occupancy
  Sn  Sn1       1.0  0.25000033017151596  0.24999995346766765  0.24999992513049601  1.0000
  Sn  Sn2       1.0  0.7500001721977262  0.7499999117043717  0.7500003410183025  1.0000
  V   V1        1.0  4.73906522775726e-08  0.9999999776950583  1.1132625679984196e-08  1.0000
  O   O1        1.0  0.23968206832748276  0.2396821510334996  0.760317858214503  1.0000
  O   O2        1.0  0.760317802138466  0.7603179884893264  0.23968196022089835  1.0000
  O   O3        1.0  0.7603178390030788  0.23968218108704864  0.23968199188823588  1.0000
  O   O4        1.0  0.2396819013363322  0.7603179450528144  0.760317834560237  1.0000
  O   O5        1.0  0.2396821371796992  0.7603178210614441  0.2396820371917225  1.0000
  O   O6        1.0  0.7603178202974079  0.23968201957516957  0.7603179764195596  1.0000
