data_image0
_chemical_formula_structural       Sn2WTe6
_chemical_formula_sum              "Sn2 W1 Te6"
_cell_length_a       7.2361126243786025
_cell_length_b       7.236112688313823
_cell_length_c       7.236112574664237
_cell_angle_alpha    60.00000049660945
_cell_angle_beta     60.000000179000274
_cell_angle_gamma    59.999999731518905

_space_group_name_H-M_alt    "P 1"
_space_group_IT_number       1

loop_
  _space_group_symop_operation_xyz
  'x, y, z'

loop_
  _atom_site_type_symbol
  _atom_site_label
  _atom_site_symmetry_multiplicity
  _atom_site_fract_x
  _atom_site_fract_y
  _atom_site_fract_z
  _atom_site_occupancy
  Sn  Sn1       1.0  0.2499999624138205  0.24999998732617792  0.2500000129265395  1.0000
  Sn  Sn2       1.0  0.7500000095331947  0.7499999924443486  0.7500000093873994  1.0000
  W   W1        1.0  0.9999999529821652  0.9999999830745472  4.332493984337045e-09  1.0000
  Te  Te1       1.0  0.26127487295302876  0.26127486261570215  0.7387251438680731  1.0000
  Te  Te2       1.0  0.738725131746896  0.7387251290026414  0.2612748810207374  1.0000
  Te  Te3       1.0  0.738725176737344  0.2612748656548633  0.2612748209076224  1.0000
  Te  Te4       1.0  0.2612748767697593  0.7387251327336612  0.7387251623729335  1.0000
  Te  Te5       1.0  0.26127486157972923  0.7387251598514499  0.26127484115324023  1.0000
  Te  Te6       1.0  0.7387251542572089  0.26127488931343434  0.7387251217546432  1.0000
