data_image0
_chemical_formula_structural       Sn2WO6
_chemical_formula_sum              "Sn2 W1 O6"
_cell_length_a       5.628085680841149
_cell_length_b       5.628085431641163
_cell_length_c       5.628085598055311
_cell_angle_alpha    59.9999982891897
_cell_angle_beta     59.99999794386891
_cell_angle_gamma    59.99999737804272

_space_group_name_H-M_alt    "P 1"
_space_group_IT_number       1

loop_
  _space_group_symop_operation_xyz
  'x, y, z'

loop_
  _atom_site_type_symbol
  _atom_site_label
  _atom_site_symmetry_multiplicity
  _atom_site_fract_x
  _atom_site_fract_y
  _atom_site_fract_z
  _atom_site_occupancy
  Sn  Sn1       1.0  0.24999976500572219  0.24999991178533212  0.2500000241053464  1.0000
  Sn  Sn2       1.0  0.749999989286939  0.750000016076841  0.7500000112534625  1.0000
  W   W1        1.0  1.954246818790803e-08  1.5232914156983396e-08  0.9999999790587022  1.0000
  O   O1        1.0  0.2447023255377786  0.24470239886097261  0.7552976463032524  1.0000
  O   O2        1.0  0.7552978069885529  0.755297526825067  0.2447023325102112  1.0000
  O   O3        1.0  0.7552977378214699  0.2447023227135491  0.24470237122668737  1.0000
  O   O4        1.0  0.24470236786591418  0.7552976834893238  0.7552976766952011  1.0000
  O   O5        1.0  0.24470231137040216  0.7552977568128139  0.24470236905673942  1.0000
  O   O6        1.0  0.7552976417249088  0.24470232555463176  0.7552976957572645  1.0000
