data_image0
_chemical_formula_structural       Sn2WS6
_chemical_formula_sum              "Sn2 W1 S6"
_cell_length_a       6.487191511294128
_cell_length_b       6.487191441700463
_cell_length_c       6.48719140303649
_cell_angle_alpha    59.99999917385369
_cell_angle_beta     59.999999214492796
_cell_angle_gamma    59.99999945856341

_space_group_name_H-M_alt    "P 1"
_space_group_IT_number       1

loop_
  _space_group_symop_operation_xyz
  'x, y, z'

loop_
  _atom_site_type_symbol
  _atom_site_label
  _atom_site_symmetry_multiplicity
  _atom_site_fract_x
  _atom_site_fract_y
  _atom_site_fract_z
  _atom_site_occupancy
  Sn  Sn1       1.0  0.25000004210989807  0.24999997344392114  0.2499999952360355  1.0000
  Sn  Sn2       1.0  0.7499999603235519  0.7500000071771492  0.7500000268299847  1.0000
  W   W1        1.0  0.9999999979855586  4.3422693324469605e-08  0.9999999422998942  1.0000
  S   S1        1.0  0.2510888889830981  0.2510888565043116  0.7489111469722661  1.0000
  S   S2        1.0  0.7489111224581744  0.7489111184529292  0.2510888888367493  1.0000
  S   S3        1.0  0.748911112740594  0.25108889502042514  0.2510888719636956  1.0000
  S   S4        1.0  0.2510888874809933  0.7489111082559634  0.7489111198411079  1.0000
  S   S5        1.0  0.25108888650578715  0.7489111152906911  0.25108888229420795  1.0000
  S   S6        1.0  0.7489111079625226  0.25108887854598155  0.7489111248145883  1.0000
