data_image0
_chemical_formula_structural       Sn2YF6
_chemical_formula_sum              "Sn2 Y1 F6"
_cell_length_a       5.900932615685497
_cell_length_b       5.900932434499675
_cell_length_c       5.900932630998802
_cell_angle_alpha    59.99999939962445
_cell_angle_beta     59.999999807923324
_cell_angle_gamma    59.99999815711066

_space_group_name_H-M_alt    "P 1"
_space_group_IT_number       1

loop_
  _space_group_symop_operation_xyz
  'x, y, z'

loop_
  _atom_site_type_symbol
  _atom_site_label
  _atom_site_symmetry_multiplicity
  _atom_site_fract_x
  _atom_site_fract_y
  _atom_site_fract_z
  _atom_site_occupancy
  Sn  Sn1       1.0  0.2500000123151652  0.2499999457857311  0.25000003262631104  1.0000
  Sn  Sn2       1.0  0.7500000110490274  0.7500000324552067  0.7499999658280347  1.0000
  Y   Y1        1.0  0.9999999946043716  0.9999999750938706  8.372289257202698e-09  1.0000
  F   F1        1.0  0.25597491254446053  0.2559749291965091  0.7440250712510325  1.0000
  F   F2        1.0  0.7440250750036446  0.7440250801770906  0.2559748990413733  1.0000
  F   F3        1.0  0.744025043516746  0.2559749491454325  0.2559749590110394  1.0000
  F   F4        1.0  0.25597489416149777  0.7440251100404267  0.744025026561994  1.0000
  F   F5        1.0  0.25597495485262084  0.7440250821655866  0.255974967882393  1.0000
  F   F6        1.0  0.7440250776037859  0.2559748981508623  0.7440250639649798  1.0000
