data_image0
_chemical_formula_structural       Sn2YBr6
_chemical_formula_sum              "Sn2 Y1 Br6"
_cell_length_a       7.383225445248656
_cell_length_b       7.383225437772544
_cell_length_c       7.383225471392002
_cell_angle_alpha    60.00000001119794
_cell_angle_beta     60.000000383533134
_cell_angle_gamma    60.00000082235406

_space_group_name_H-M_alt    "P 1"
_space_group_IT_number       1

loop_
  _space_group_symop_operation_xyz
  'x, y, z'

loop_
  _atom_site_type_symbol
  _atom_site_label
  _atom_site_symmetry_multiplicity
  _atom_site_fract_x
  _atom_site_fract_y
  _atom_site_fract_z
  _atom_site_occupancy
  Sn  Sn1       1.0  0.2499999754508479  0.2500000178787661  0.25000002006846883  1.0000
  Sn  Sn2       1.0  0.7500000173165672  0.7499999308835524  0.7500000137963747  1.0000
  Y   Y1        1.0  4.004747841107053e-08  0.9999999502353732  0.9999999588082401  1.0000
  Br  Br1       1.0  0.2606666321952572  0.26066663114572153  0.7393333748637622  1.0000
  Br  Br2       1.0  0.7393333704436987  0.7393334287575974  0.2606665754696436  1.0000
  Br  Br3       1.0  0.7393333427642341  0.26066665524127225  0.2606666723279913  1.0000
  Br  Br4       1.0  0.26066660707985484  0.7393333847561954  0.7393333712414805  1.0000
  Br  Br5       1.0  0.2606666259195913  0.739333363218995  0.26066663219420305  1.0000
  Br  Br6       1.0  0.7393333958039433  0.2606666253550252  0.7393333808309459  1.0000
