data_image0
_chemical_formula_structural       Sn2YCl6
_chemical_formula_sum              "Sn2 Y1 Cl6"
_cell_length_a       6.9633761252317425
_cell_length_b       6.963376288984023
_cell_length_c       6.963375718218233
_cell_angle_alpha    60.00000156090967
_cell_angle_beta     60.000001986966545
_cell_angle_gamma    60.000001455129706

_space_group_name_H-M_alt    "P 1"
_space_group_IT_number       1

loop_
  _space_group_symop_operation_xyz
  'x, y, z'

loop_
  _atom_site_type_symbol
  _atom_site_label
  _atom_site_symmetry_multiplicity
  _atom_site_fract_x
  _atom_site_fract_y
  _atom_site_fract_z
  _atom_site_occupancy
  Sn  Sn1       1.0  0.2499999151567995  0.2500001254351817  0.2499999791952094  1.0000
  Sn  Sn2       1.0  0.750000100763987  0.7499998029244631  0.7500002577338871  1.0000
  Y   Y1        1.0  2.6129611220606636e-08  2.1106051683507824e-08  0.9999999979234446  1.0000
  Cl  Cl1       1.0  0.26044821815645663  0.26044845174544373  0.7395516416041968  1.0000
  Cl  Cl2       1.0  0.7395517679646776  0.7395515610384132  0.260448254946071  1.0000
  Cl  Cl3       1.0  0.7395516789318533  0.26044838607674314  0.2604482515738093  1.0000
  Cl  Cl4       1.0  0.2604482740070609  0.7395516566073539  0.7395516595422139  1.0000
  Cl  Cl5       1.0  0.26044836771170204  0.7395516682294088  0.2604482660564565  1.0000
  Cl  Cl6       1.0  0.7395516464157289  0.26044832520723304  0.7395516821715888  1.0000
