data_image0
_chemical_formula_structural       Sn2YI6
_chemical_formula_sum              "Sn2 Y1 I6"
_cell_length_a       8.043643835193826
_cell_length_b       8.043643706493704
_cell_length_c       8.043643744119922
_cell_angle_alpha    59.99999912156354
_cell_angle_beta     60.000000243634034
_cell_angle_gamma    59.99999848798889

_space_group_name_H-M_alt    "P 1"
_space_group_IT_number       1

loop_
  _space_group_symop_operation_xyz
  'x, y, z'

loop_
  _atom_site_type_symbol
  _atom_site_label
  _atom_site_symmetry_multiplicity
  _atom_site_fract_x
  _atom_site_fract_y
  _atom_site_fract_z
  _atom_site_occupancy
  Sn  Sn1       1.0  0.2500000524368511  0.24999997535661478  0.25000001158328417  1.0000
  Sn  Sn2       1.0  0.7499999494874741  0.7500000844227944  0.7499999115420143  1.0000
  Y   Y1        1.0  2.811625995128748e-08  6.09049739587344e-09  2.143636890473882e-08  1.0000
  I   I1        1.0  0.2607394556976873  0.26073939518166667  0.7392605997148796  1.0000
  I   I2        1.0  0.7392605273929702  0.7392605229936646  0.2607394769791349  1.0000
  I   I3        1.0  0.7392605360477563  0.26073941069350476  0.26073946603074116  1.0000
  I   I4        1.0  0.2607395093360369  0.7392605531605607  0.7392605330562022  1.0000
  I   I5        1.0  0.26073944445653446  0.7392605903473806  0.2607394012073798  1.0000
  I   I6        1.0  0.7392604954060141  0.2607394618189065  0.7392605816197214  1.0000
