data_image0
_chemical_formula_structural       Sn2ZrS6
_chemical_formula_sum              "Sn2 Zr1 S6"
_cell_length_a       6.52667072889609
_cell_length_b       6.526670534211387
_cell_length_c       6.5266707504806645
_cell_angle_alpha    59.99999891916787
_cell_angle_beta     59.999999928265424
_cell_angle_gamma    60.000000437050154

_space_group_name_H-M_alt    "P 1"
_space_group_IT_number       1

loop_
  _space_group_symop_operation_xyz
  'x, y, z'

loop_
  _atom_site_type_symbol
  _atom_site_label
  _atom_site_symmetry_multiplicity
  _atom_site_fract_x
  _atom_site_fract_y
  _atom_site_fract_z
  _atom_site_occupancy
  Sn  Sn1       1.0  0.2500000591584325  0.2500000679633262  0.24999988670669926  1.0000
  Sn  Sn2       1.0  0.7500000519723646  0.7500000124846075  0.7499999610664997  1.0000
  Zr  Zr1       1.0  0.9999999279992784  0.9999999718521504  1.1748997371013525e-07  1.0000
  S   S1        1.0  0.2675890223555404  0.26758904510180115  0.732410981626552  1.0000
  S   S2        1.0  0.732411018436418  0.7324110128278526  0.2675889738621955  1.0000
  S   S3        1.0  0.7324109476167734  0.26758900411827535  0.26758910332629754  1.0000
  S   S4        1.0  0.26758912001993584  0.7324108830477654  0.7324109164610073  1.0000
  S   S5        1.0  0.26758898860537217  0.7324108999219763  0.26758915936639815  1.0000
  S   S6        1.0  0.7324108755177544  0.26758908294674544  0.7324109036011344  1.0000
