data_image0
_chemical_formula_structural       Sn2ZnF6
_chemical_formula_sum              "Sn2 Zn1 F6"
_cell_length_a       5.53781566063948
_cell_length_b       5.537815822450523
_cell_length_c       5.537815721584752
_cell_angle_alpha    60.000000254097216
_cell_angle_beta     59.999999155154484
_cell_angle_gamma    60.00000013134772

_space_group_name_H-M_alt    "P 1"
_space_group_IT_number       1

loop_
  _space_group_symop_operation_xyz
  'x, y, z'

loop_
  _atom_site_type_symbol
  _atom_site_label
  _atom_site_symmetry_multiplicity
  _atom_site_fract_x
  _atom_site_fract_y
  _atom_site_fract_z
  _atom_site_occupancy
  Sn  Sn1       1.0  0.2500000017827306  0.2500000801687122  0.25000005121434193  1.0000
  Sn  Sn2       1.0  0.7500000675911398  0.7499999286701509  0.7499999895169663  1.0000
  Zn  Zn1       1.0  1.2911866583583797e-08  0.9999999424983288  6.257089899674022e-10  1.0000
  F   F1        1.0  0.25283454158604285  0.2528346704164879  0.7471653758762166  1.0000
  F   F2        1.0  0.7471654025324947  0.7471653826544308  0.25283452117858646  1.0000
  F   F3        1.0  0.7471653972696418  0.2528346336629416  0.25283453354710705  1.0000
  F   F4        1.0  0.2528345495664326  0.7471653862339356  0.7471655123626413  1.0000
  F   F5        1.0  0.252834576378365  0.7471654005579311  0.2528345664570952  1.0000
  F   F6        1.0  0.747165450704106  0.2528345662604801  0.7471654658686877  1.0000
