data_image0
_chemical_formula_structural       Sn2ZrTe6
_chemical_formula_sum              "Sn2 Zr1 Te6"
_cell_length_a       7.402912330863563
_cell_length_b       7.402912423034953
_cell_length_c       7.40291231402656
_cell_angle_alpha    59.999999810969136
_cell_angle_beta     59.99999994732599
_cell_angle_gamma    59.99999970749252

_space_group_name_H-M_alt    "P 1"
_space_group_IT_number       1

loop_
  _space_group_symop_operation_xyz
  'x, y, z'

loop_
  _atom_site_type_symbol
  _atom_site_label
  _atom_site_symmetry_multiplicity
  _atom_site_fract_x
  _atom_site_fract_y
  _atom_site_fract_z
  _atom_site_occupancy
  Sn  Sn1       1.0  0.2499999878437041  0.250000030439577  0.24999999244431462  1.0000
  Sn  Sn2       1.0  0.7500000072702312  0.7499999788188837  0.7500000184674074  1.0000
  Zr  Zr1       1.0  2.5145910843717925e-08  0.9999999900735426  2.3459127061089362e-08  1.0000
  Te  Te1       1.0  0.26876569535661804  0.268765734131514  0.7312342871313107  1.0000
  Te  Te2       1.0  0.7312342848054817  0.7312342685093091  0.26876571565367197  1.0000
  Te  Te3       1.0  0.7312343014700854  0.2687657122131766  0.2687656968689394  1.0000
  Te  Te4       1.0  0.26876571678934963  0.7312342556850463  0.7312343096419542  1.0000
  Te  Te5       1.0  0.26876569166768477  0.7312342954032574  0.268765693399988  1.0000
  Te  Te6       1.0  0.7312342875644761  0.2687657287448894  0.7312342774831865  1.0000
