data_image0
_chemical_formula_structural       Sn2ZnCl6
_chemical_formula_sum              "Sn2 Zn1 Cl6"
_cell_length_a       6.62134484918838
_cell_length_b       6.621344757900248
_cell_length_c       6.621344962560004
_cell_angle_alpha    59.99999929915486
_cell_angle_beta     59.99999837835976
_cell_angle_gamma    59.99999931343745

_space_group_name_H-M_alt    "P 1"
_space_group_IT_number       1

loop_
  _space_group_symop_operation_xyz
  'x, y, z'

loop_
  _atom_site_type_symbol
  _atom_site_label
  _atom_site_symmetry_multiplicity
  _atom_site_fract_x
  _atom_site_fract_y
  _atom_site_fract_z
  _atom_site_occupancy
  Sn  Sn1       1.0  0.2499999111669873  0.2500001134980845  0.24999994531084568  1.0000
  Sn  Sn2       1.0  0.7500000214119766  0.7499998743718572  0.7500001077805535  1.0000
  Zn  Zn1       1.0  0.9999999451984029  3.8843532801997976e-08  0.9999999717326203  1.0000
  Cl  Cl1       1.0  0.25171939113439257  0.2517194430780188  0.7482805644986026  1.0000
  Cl  Cl2       1.0  0.7482806210295523  0.7482805780863794  0.2517193611705197  1.0000
  Cl  Cl3       1.0  0.7482806185142493  0.2517194901876368  0.2517193595570204  1.0000
  Cl  Cl4       1.0  0.25171939507624413  0.7482805476239902  0.7482806144653662  1.0000
  Cl  Cl5       1.0  0.251719464524406  0.7482805068396721  0.25171952098845957  1.0000
  Cl  Cl6       1.0  0.7482806298691582  0.25171940889228017  0.7482805522061217  1.0000
