data_image0
_chemical_formula_structural       Sn2ZrO6
_chemical_formula_sum              "Sn2 Zr1 O6"
_cell_length_a       5.588914912490351
_cell_length_b       5.588914929859912
_cell_length_c       5.588915009497375
_cell_angle_alpha    59.99999878604651
_cell_angle_beta     59.99999846326421
_cell_angle_gamma    59.999998899893505

_space_group_name_H-M_alt    "P 1"
_space_group_IT_number       1

loop_
  _space_group_symop_operation_xyz
  'x, y, z'

loop_
  _atom_site_type_symbol
  _atom_site_label
  _atom_site_symmetry_multiplicity
  _atom_site_fract_x
  _atom_site_fract_y
  _atom_site_fract_z
  _atom_site_occupancy
  Sn  Sn1       1.0  0.2500001469352789  0.249999926987875  0.24999998580590824  1.0000
  Sn  Sn2       1.0  0.7500000240641719  0.7500000022932318  0.7500000247064026  1.0000
  Zr  Zr1       1.0  1.0204947503916157e-08  6.5741465310406765e-09  1.844929363835423e-08  1.0000
  O   O1        1.0  0.2655624459476428  0.2655624505874692  0.7344374517803067  1.0000
  O   O2        1.0  0.7344375392106842  0.7344375093729902  0.2655624520195173  1.0000
  O   O3        1.0  0.7344375227284182  0.2655624918115755  0.265562345089877  1.0000
  O   O4        1.0  0.2655624892886233  0.7344374681488837  0.7344376025367837  1.0000
  O   O5        1.0  0.26556240664422875  0.7344377421219368  0.26556247020667517  1.0000
  O   O6        1.0  0.7344374515214398  0.2655624128715405  0.7344376411225362  1.0000
