data_image0
_chemical_formula_structural       Sn2ZnI6
_chemical_formula_sum              "Sn2 Zn1 I6"
_cell_length_a       7.577955579120639
_cell_length_b       7.577955564399721
_cell_length_c       7.577955570133948
_cell_angle_alpha    59.99999964268025
_cell_angle_beta     60.00000017708375
_cell_angle_gamma    60.00000006027278

_space_group_name_H-M_alt    "P 1"
_space_group_IT_number       1

loop_
  _space_group_symop_operation_xyz
  'x, y, z'

loop_
  _atom_site_type_symbol
  _atom_site_label
  _atom_site_symmetry_multiplicity
  _atom_site_fract_x
  _atom_site_fract_y
  _atom_site_fract_z
  _atom_site_occupancy
  Sn  Sn1       1.0  0.2500001204393629  0.2499998617113516  0.24999992079390707  1.0000
  Sn  Sn2       1.0  0.7500000459834987  0.7500000602951835  0.749999927917237  1.0000
  Zn  Zn1       1.0  0.9999999938125179  4.84858289346466e-09  1.3865620907235986e-08  1.0000
  I   I1        1.0  0.255502325647163  0.2555023580046975  0.7444976815340578  1.0000
  I   I2        1.0  0.7444976005572176  0.7444977223888801  0.255502318940644  1.0000
  I   I3        1.0  0.7444976475952253  0.25550230544144914  0.2555023919013673  1.0000
  I   I4        1.0  0.2555023309268189  0.7444976682833033  0.7444976674197267  1.0000
  I   I5        1.0  0.2555023140178563  0.7444977124010832  0.2555023613904906  1.0000
  I   I6        1.0  0.7444976245007746  0.25550230819330433  0.7444977156113667  1.0000
