data_image0
_chemical_formula_structural       Sn2ZnBr6
_chemical_formula_sum              "Sn2 Zn1 Br6"
_cell_length_a       7.030368542527739
_cell_length_b       7.030368461173904
_cell_length_c       7.0303685446714095
_cell_angle_alpha    60.000000282506726
_cell_angle_beta     60.000000442899484
_cell_angle_gamma    60.0000000907444

_space_group_name_H-M_alt    "P 1"
_space_group_IT_number       1

loop_
  _space_group_symop_operation_xyz
  'x, y, z'

loop_
  _atom_site_type_symbol
  _atom_site_label
  _atom_site_symmetry_multiplicity
  _atom_site_fract_x
  _atom_site_fract_y
  _atom_site_fract_z
  _atom_site_occupancy
  Sn  Sn1       1.0  0.2500000933776329  0.2500000946413443  0.2499999390830079  1.0000
  Sn  Sn2       1.0  0.7500000822310232  0.7500000104178204  0.7499999590746301  1.0000
  Zn  Zn1       1.0  0.9999999932309511  1.045246667049865e-08  0.99999999531349  1.0000
  Br  Br1       1.0  0.2539385218115539  0.2539385469986064  0.7460614500271532  1.0000
  Br  Br2       1.0  0.7460614672897892  0.7460614622462797  0.25393851817125274  1.0000
  Br  Br3       1.0  0.7460614069319614  0.25393851281056273  0.25393856744621984  1.0000
  Br  Br4       1.0  0.2539385165057036  0.7460614372036789  0.7460614944921585  1.0000
  Br  Br5       1.0  0.2539384866497017  0.7460614116311921  0.25393858042658357  1.0000
  Br  Br6       1.0  0.7460614312970248  0.25393851050980504  0.7460614981938862  1.0000
