data_image0
_chemical_formula_structural       Sr2AuF6
_chemical_formula_sum              "Sr2 Au1 F6"
_cell_length_a       5.878823051308546
_cell_length_b       5.8788230035924744
_cell_length_c       5.878823106231736
_cell_angle_alpha    59.99999964858282
_cell_angle_beta     59.99999909931567
_cell_angle_gamma    60.00000139917185

_space_group_name_H-M_alt    "P 1"
_space_group_IT_number       1

loop_
  _space_group_symop_operation_xyz
  'x, y, z'

loop_
  _atom_site_type_symbol
  _atom_site_label
  _atom_site_symmetry_multiplicity
  _atom_site_fract_x
  _atom_site_fract_y
  _atom_site_fract_z
  _atom_site_occupancy
  Sr  Sr1       1.0  0.25000001790343657  0.24999999842459197  0.24999997190416023  1.0000
  Sr  Sr2       1.0  0.7500000084152624  0.7500000015237244  0.7499999777605485  1.0000
  Au  Au1       1.0  6.116843343309698e-08  0.9999999166673434  5.871069170099517e-08  1.0000
  F   F1        1.0  0.2631947752526364  0.2631948191761286  0.7368052061016186  1.0000
  F   F2        1.0  0.7368052385048394  0.7368053245210228  0.26319473240194824  1.0000
  F   F3        1.0  0.7368052120598122  0.2631947405225974  0.2631947962340354  1.0000
  F   F4        1.0  0.26319478795198026  0.7368051969262247  0.736805157009376  1.0000
  F   F5        1.0  0.2631947499281364  0.7368052134031825  0.26319488564172444  1.0000
  F   F6        1.0  0.7368051821308635  0.26319475112875274  0.7368052394273725  1.0000
