data_image0
_chemical_formula_structural       Sr2AgF6
_chemical_formula_sum              "Sr2 Ag1 F6"
_cell_length_a       5.756701557342484
_cell_length_b       5.75670153735104
_cell_length_c       5.756701645095776
_cell_angle_alpha    59.99999859933337
_cell_angle_beta     59.99999894280597
_cell_angle_gamma    59.999998742109895

_space_group_name_H-M_alt    "P 1"
_space_group_IT_number       1

loop_
  _space_group_symop_operation_xyz
  'x, y, z'

loop_
  _atom_site_type_symbol
  _atom_site_label
  _atom_site_symmetry_multiplicity
  _atom_site_fract_x
  _atom_site_fract_y
  _atom_site_fract_z
  _atom_site_occupancy
  Sr  Sr1       1.0  0.2500000010487612  0.2500000166262246  0.24999997777596272  1.0000
  Sr  Sr2       1.0  0.7500000372872663  0.7499999775432811  0.7500000375432792  1.0000
  Ag  Ag1       1.0  4.3318447244625906e-08  0.9999999723423497  1.996329480755783e-08  1.0000
  F   F1        1.0  0.26285707799447494  0.26285708237272315  0.7371429110689119  1.0000
  F   F2        1.0  0.7371429137414781  0.7371429011592252  0.26285709117860595  1.0000
  F   F3        1.0  0.7371428466046673  0.2628571822296891  0.2628570961420904  1.0000
  F   F4        1.0  0.26285712752369705  0.7371428481075133  0.7371428654500073  1.0000
  F   F5        1.0  0.2628570954416739  0.7371428981237981  0.2628571060087304  1.0000
  F   F6        1.0  0.737142862396645  0.2628571449784733  0.7371428747169136  1.0000
