data_image0
_chemical_formula_structural       Sr2AgCl6
_chemical_formula_sum              "Sr2 Ag1 Cl6"
_cell_length_a       6.846231568071462
_cell_length_b       6.846231797618835
_cell_length_c       6.846231817029899
_cell_angle_alpha    59.999998206506824
_cell_angle_beta     59.999998413118725
_cell_angle_gamma    59.999998507713485

_space_group_name_H-M_alt    "P 1"
_space_group_IT_number       1

loop_
  _space_group_symop_operation_xyz
  'x, y, z'

loop_
  _atom_site_type_symbol
  _atom_site_label
  _atom_site_symmetry_multiplicity
  _atom_site_fract_x
  _atom_site_fract_y
  _atom_site_fract_z
  _atom_site_occupancy
  Sr  Sr1       1.0  0.2500000245925359  0.2499999654488343  0.24999992092324938  1.0000
  Sr  Sr2       1.0  0.7500000921082765  0.749999937491953  0.7500000149385897  1.0000
  Ag  Ag1       1.0  0.9999998784082353  9.660237529992439e-08  0.9999999876635159  1.0000
  Cl  Cl1       1.0  0.25767934676904086  0.2576794194011593  0.7423205884598052  1.0000
  Cl  Cl2       1.0  0.7423205582153053  0.7423206481214522  0.25767936220540827  1.0000
  Cl  Cl3       1.0  0.7423206424041288  0.2576794099083726  0.257679383659895  1.0000
  Cl  Cl4       1.0  0.2576793785158051  0.7423205628007943  0.74232069082474  1.0000
  Cl  Cl5       1.0  0.257679386319802  0.7423206107923445  0.25767948239512783  1.0000
  Cl  Cl6       1.0  0.7423207018779489  0.2576793422385605  0.7423205697503871  1.0000
