data_image0
_chemical_formula_structural       Sr2AgI6
_chemical_formula_sum              "Sr2 Ag1 I6"
_cell_length_a       7.8404449976554
_cell_length_b       7.840444890551273
_cell_length_c       7.840445037787413
_cell_angle_alpha    59.99999920093612
_cell_angle_beta     59.9999991206038
_cell_angle_gamma    60.000000281870726

_space_group_name_H-M_alt    "P 1"
_space_group_IT_number       1

loop_
  _space_group_symop_operation_xyz
  'x, y, z'

loop_
  _atom_site_type_symbol
  _atom_site_label
  _atom_site_symmetry_multiplicity
  _atom_site_fract_x
  _atom_site_fract_y
  _atom_site_fract_z
  _atom_site_occupancy
  Sr  Sr1       1.0  0.24999999243327922  0.25000000450155574  0.24999999489429509  1.0000
  Sr  Sr2       1.0  0.7500000245477897  0.7499999557074878  0.7499999925083745  1.0000
  Ag  Ag1       1.0  3.8082135479754005e-09  6.248343852215191e-09  2.1755915151377972e-08  1.0000
  I   I1        1.0  0.2575131752924284  0.2575131087837579  0.7424868935037504  1.0000
  I   I2        1.0  0.7424868417626496  0.742486873294489  0.2575131364957007  1.0000
  I   I3        1.0  0.7424868367688113  0.2575131644029528  0.2575131364135643  1.0000
  I   I4        1.0  0.2575131676262333  0.7424868379824111  0.7424868463974597  1.0000
  I   I5        1.0  0.25751312077332333  0.7424868564039844  0.2575131452597142  1.0000
  I   I6        1.0  0.7424868365524436  0.25751319440604337  0.7424868317718657  1.0000
