data_image0
_chemical_formula_structural       Sr2AuI6
_chemical_formula_sum              "Sr2 Au1 I6"
_cell_length_a       7.867859228171468
_cell_length_b       7.867859239232103
_cell_length_c       7.867859304165074
_cell_angle_alpha    59.99999990547252
_cell_angle_beta     60.000000260839826
_cell_angle_gamma    60.00000032208428

_space_group_name_H-M_alt    "P 1"
_space_group_IT_number       1

loop_
  _space_group_symop_operation_xyz
  'x, y, z'

loop_
  _atom_site_type_symbol
  _atom_site_label
  _atom_site_symmetry_multiplicity
  _atom_site_fract_x
  _atom_site_fract_y
  _atom_site_fract_z
  _atom_site_occupancy
  Sr  Sr1       1.0  0.25000008448818833  0.25000003161245743  0.24999991642782432  1.0000
  Sr  Sr2       1.0  0.7499999338674708  0.7499999485129207  0.7500001029886506  1.0000
  Au  Au1       1.0  0.9999999995701446  0.9999999968867138  0.9999999661837458  1.0000
  I   I1        1.0  0.25779415695772634  0.25779419020338934  0.7422058248264793  1.0000
  I   I2        1.0  0.7422058191625895  0.7422058241681367  0.2577941782486933  1.0000
  I   I3        1.0  0.7422058125537585  0.2577941856797515  0.2577941946853381  1.0000
  I   I4        1.0  0.257794175129443  0.742205838031633  0.7422058131903873  1.0000
  I   I5        1.0  0.25779419437249285  0.7422058334439184  0.25779416444173114  1.0000
  I   I6        1.0  0.7422058244130215  0.25779414979474596  0.7422058417642292  1.0000
