data_image0
_chemical_formula_structural       Sr2AuCl6
_chemical_formula_sum              "Sr2 Au1 Cl6"
_cell_length_a       6.871694647703496
_cell_length_b       6.871694788678041
_cell_length_c       6.871694588625387
_cell_angle_alpha    60.000001200469065
_cell_angle_beta     60.00000020630566
_cell_angle_gamma    60.000001080959784

_space_group_name_H-M_alt    "P 1"
_space_group_IT_number       1

loop_
  _space_group_symop_operation_xyz
  'x, y, z'

loop_
  _atom_site_type_symbol
  _atom_site_label
  _atom_site_symmetry_multiplicity
  _atom_site_fract_x
  _atom_site_fract_y
  _atom_site_fract_z
  _atom_site_occupancy
  Sr  Sr1       1.0  0.2500000177855011  0.2500000110784962  0.24999995613655285  1.0000
  Sr  Sr2       1.0  0.7500000181881048  0.7499999975894106  0.7499999911316039  1.0000
  Au  Au1       1.0  0.9999999508614769  2.138764691512005e-08  1.824117355799301e-08  1.0000
  Cl  Cl1       1.0  0.2566764653175534  0.2566764731353085  0.7433235356484408  1.0000
  Cl  Cl2       1.0  0.7433235103665129  0.7433235248387747  0.25667647039531954  1.0000
  Cl  Cl3       1.0  0.7433235590855103  0.25667644982903715  0.2566764940526174  1.0000
  Cl  Cl4       1.0  0.25667648887205347  0.7433235178458798  0.7433234924592225  1.0000
  Cl  Cl5       1.0  0.25667646295545804  0.7433235110455041  0.2566765301327965  1.0000
  Cl  Cl6       1.0  0.7433235295323312  0.25667648692857953  0.7433235097112104  1.0000
