data_image0
_chemical_formula_structural       Sr2AuBr6
_chemical_formula_sum              "Sr2 Au1 Br6"
_cell_length_a       7.209161682366272
_cell_length_b       7.209161741838454
_cell_length_c       7.209161697685745
_cell_angle_alpha    59.99999992978039
_cell_angle_beta     60.00000017560334
_cell_angle_gamma    59.99999984082177

_space_group_name_H-M_alt    "P 1"
_space_group_IT_number       1

loop_
  _space_group_symop_operation_xyz
  'x, y, z'

loop_
  _atom_site_type_symbol
  _atom_site_label
  _atom_site_symmetry_multiplicity
  _atom_site_fract_x
  _atom_site_fract_y
  _atom_site_fract_z
  _atom_site_occupancy
  Sr  Sr1       1.0  0.249999961467126  0.2499999909158151  0.25000002807954796  1.0000
  Sr  Sr2       1.0  0.7500000035415543  0.7500000525944661  0.7499999667124359  1.0000
  Au  Au1       1.0  3.6175939748704714e-08  6.795490854384635e-09  2.5676495041552174e-08  1.0000
  Br  Br1       1.0  0.25852702184673065  0.2585269796824262  0.7414729842454798  1.0000
  Br  Br2       1.0  0.7414729878655931  0.7414729873785793  0.2585270014510912  1.0000
  Br  Br3       1.0  0.7414730065574907  0.2585269790671157  0.2585270267503779  1.0000
  Br  Br4       1.0  0.2585270086234222  0.7414729811983986  0.7414729887392447  1.0000
  Br  Br5       1.0  0.2585269861346955  0.7414730018283652  0.2585270028810539  1.0000
  Br  Br6       1.0  0.7414729884037704  0.25852701789769694  0.7414729768441654  1.0000
