data_image0
_chemical_formula_structural       Sr2AgBr6
_chemical_formula_sum              "Sr2 Ag1 Br6"
_cell_length_a       7.227149709392334
_cell_length_b       7.227149748808281
_cell_length_c       7.227149852576711
_cell_angle_alpha    59.99999935166653
_cell_angle_beta     59.999999482692154
_cell_angle_gamma    59.9999993309019

_space_group_name_H-M_alt    "P 1"
_space_group_IT_number       1

loop_
  _space_group_symop_operation_xyz
  'x, y, z'

loop_
  _atom_site_type_symbol
  _atom_site_label
  _atom_site_symmetry_multiplicity
  _atom_site_fract_x
  _atom_site_fract_y
  _atom_site_fract_z
  _atom_site_occupancy
  Sr  Sr1       1.0  0.2499999957135981  0.2499999767339972  0.2499999837823049  1.0000
  Sr  Sr2       1.0  0.750000016317941  0.750000020018144  0.7500000191480267  1.0000
  Ag  Ag1       1.0  0.9999999605081829  3.219824365928333e-08  0.9999999939610874  1.0000
  Br  Br1       1.0  0.2590882092413362  0.2590882059034853  0.7409117933856058  1.0000
  Br  Br2       1.0  0.7409117884106681  0.7409117908486561  0.259088198746766  1.0000
  Br  Br3       1.0  0.7409117949858907  0.25908820290218554  0.2590882080312208  1.0000
  Br  Br4       1.0  0.25908819834089875  0.7409117972392446  0.7409117914874708  1.0000
  Br  Br5       1.0  0.2590882233193176  0.7409117730179166  0.25908820628890405  1.0000
  Br  Br6       1.0  0.7409118141955487  0.25908820000920313  0.740911809598988  1.0000
