data_image0
_chemical_formula_structural       Sr2BaI6
_chemical_formula_sum              "Sr2 Ba1 I6"
_cell_length_a       8.368001135013554
_cell_length_b       8.368001220893065
_cell_length_c       8.368001316340848
_cell_angle_alpha    59.99999890916509
_cell_angle_beta     60.00000021765039
_cell_angle_gamma    60.00000228310045

_space_group_name_H-M_alt    "P 1"
_space_group_IT_number       1

loop_
  _space_group_symop_operation_xyz
  'x, y, z'

loop_
  _atom_site_type_symbol
  _atom_site_label
  _atom_site_symmetry_multiplicity
  _atom_site_fract_x
  _atom_site_fract_y
  _atom_site_fract_z
  _atom_site_occupancy
  Sr  Sr1       1.0  0.2500000349673975  0.24999995419550933  0.2500000108347408  1.0000
  Sr  Sr2       1.0  0.7500000091294158  0.7499999884565588  0.7499999696544543  1.0000
  Ba  Ba1       1.0  7.164974892022841e-09  0.9999999619462699  0.9999999604730672  1.0000
  I   I1        1.0  0.27267799421919225  0.2726779397567826  0.7273220076139723  1.0000
  I   I2        1.0  0.7273220268353845  0.7273221258381078  0.2726779348752141  1.0000
  I   I3        1.0  0.7273220017047576  0.2726780305582868  0.27267796469665506  1.0000
  I   I4        1.0  0.2726778864608903  0.7273220569906746  0.7273220894262983  1.0000
  I   I5        1.0  0.27267800684122717  0.7273219934840703  0.2726779845633539  1.0000
  I   I6        1.0  0.727322028808777  0.2726779579496269  0.7273220746303116  1.0000
