data_image0
_chemical_formula_structural       Sr2BeI6
_chemical_formula_sum              "Sr2 Be1 I6"
_cell_length_a       7.709957613600687
_cell_length_b       7.70995759789151
_cell_length_c       7.709957517054526
_cell_angle_alpha    60.0000001481278
_cell_angle_beta     60.00000015913602
_cell_angle_gamma    59.99999960160976

_space_group_name_H-M_alt    "P 1"
_space_group_IT_number       1

loop_
  _space_group_symop_operation_xyz
  'x, y, z'

loop_
  _atom_site_type_symbol
  _atom_site_label
  _atom_site_symmetry_multiplicity
  _atom_site_fract_x
  _atom_site_fract_y
  _atom_site_fract_z
  _atom_site_occupancy
  Sr  Sr1       1.0  0.2500000589090613  0.24999997522531395  0.24999998745452418  1.0000
  Sr  Sr2       1.0  0.7499999695471218  0.7500000305184931  0.7500000161263763  1.0000
  Be  Be1       1.0  2.7228009309249703e-09  1.4296711333062753e-08  1.2242627968706697e-08  1.0000
  I   I1        1.0  0.242936353271556  0.24293633647721133  0.7570636987732916  1.0000
  I   I2        1.0  0.7570636202249238  0.7570636454387436  0.24293636106269875  1.0000
  I   I3        1.0  0.7570636687191736  0.24293633886228055  0.24293633707286877  1.0000
  I   I4        1.0  0.24293639861686708  0.7570636176372981  0.7570636068390166  1.0000
  I   I5        1.0  0.24293633968861336  0.7570636770751821  0.24293634437402675  1.0000
  I   I6        1.0  0.7570635935964459  0.2429363715587597  0.7570636282783119  1.0000
