data_image0
_chemical_formula_structural       Sr2BaCl6
_chemical_formula_sum              "Sr2 Ba1 Cl6"
_cell_length_a       7.434128529185475
_cell_length_b       7.434128351731149
_cell_length_c       7.434128870341251
_cell_angle_alpha    59.99999939958468
_cell_angle_beta     59.99999815321317
_cell_angle_gamma    60.000002423687086

_space_group_name_H-M_alt    "P 1"
_space_group_IT_number       1

loop_
  _space_group_symop_operation_xyz
  'x, y, z'

loop_
  _atom_site_type_symbol
  _atom_site_label
  _atom_site_symmetry_multiplicity
  _atom_site_fract_x
  _atom_site_fract_y
  _atom_site_fract_z
  _atom_site_occupancy
  Sr  Sr1       1.0  0.25000000382238796  0.2499998958457415  0.25000009646479526  1.0000
  Sr  Sr2       1.0  0.7499999607214479  0.7500000681010857  0.7499999038811253  1.0000
  Ba  Ba1       1.0  0.9999999980860435  0.9999999917626855  0.9999999431988496  1.0000
  Cl  Cl1       1.0  0.27268186001488687  0.27268183808094365  0.7273181201183132  1.0000
  Cl  Cl2       1.0  0.727318111226415  0.7273182362458802  0.2726818432112377  1.0000
  Cl  Cl3       1.0  0.7273180746338159  0.27268191201495046  0.27268193254843154  1.0000
  Cl  Cl4       1.0  0.27268192011072934  0.7273181244202351  0.727318086400627  1.0000
  Cl  Cl5       1.0  0.2726819394871072  0.7273180475105613  0.2726819797238947  1.0000
  Cl  Cl6       1.0  0.7273181334391625  0.2726818801920945  0.7273180948549904  1.0000
