data_image0
_chemical_formula_structural       Sr2BeCl6
_chemical_formula_sum              "Sr2 Be1 Cl6"
_cell_length_a       6.591469875249636
_cell_length_b       6.59146986764078
_cell_length_c       6.591469795399403
_cell_angle_alpha    60.000000791952196
_cell_angle_beta     60.00000105573447
_cell_angle_gamma    60.00000060151693

_space_group_name_H-M_alt    "P 1"
_space_group_IT_number       1

loop_
  _space_group_symop_operation_xyz
  'x, y, z'

loop_
  _atom_site_type_symbol
  _atom_site_label
  _atom_site_symmetry_multiplicity
  _atom_site_fract_x
  _atom_site_fract_y
  _atom_site_fract_z
  _atom_site_occupancy
  Sr  Sr1       1.0  0.2499999284973322  0.25000005468009967  0.25000002749734507  1.0000
  Sr  Sr2       1.0  0.7500000070551189  0.7499999670842966  0.7499999336483674  1.0000
  Be  Be1       1.0  4.059220141141672e-08  1.4864603899652906e-08  0.9999999464806882  1.0000
  Cl  Cl1       1.0  0.24343256539160335  0.2434324873729139  0.7565675005845225  1.0000
  Cl  Cl2       1.0  0.7565675028218078  0.756567467500765  0.24343256876751448  1.0000
  Cl  Cl3       1.0  0.7565674140995384  0.2434325539328923  0.2434325237551711  1.0000
  Cl  Cl4       1.0  0.24343256907058874  0.7565674511088246  0.7565675099355573  1.0000
  Cl  Cl5       1.0  0.2434325842305115  0.7565674480229453  0.24343247408155516  1.0000
  Cl  Cl6       1.0  0.7565673967809767  0.2434325477283941  0.7565675122347505  1.0000
