data_image0
_chemical_formula_structural       Sr2BaBr6
_chemical_formula_sum              "Sr2 Ba1 Br6"
_cell_length_a       7.816379619777153
_cell_length_b       7.816379538447106
_cell_length_c       7.816379584694865
_cell_angle_alpha    60.000000616319475
_cell_angle_beta     59.99999963915514
_cell_angle_gamma    60.000000460132625

_space_group_name_H-M_alt    "P 1"
_space_group_IT_number       1

loop_
  _space_group_symop_operation_xyz
  'x, y, z'

loop_
  _atom_site_type_symbol
  _atom_site_label
  _atom_site_symmetry_multiplicity
  _atom_site_fract_x
  _atom_site_fract_y
  _atom_site_fract_z
  _atom_site_occupancy
  Sr  Sr1       1.0  0.25000000237567727  0.25000004986770025  0.2499999280928269  1.0000
  Sr  Sr2       1.0  0.7499999810020086  0.7499999443398133  0.7500000304678324  1.0000
  Ba  Ba1       1.0  4.460270368142969e-08  0.9999999592607222  5.5639697446005774e-08  1.0000
  Br  Br1       1.0  0.2730076549025725  0.27300759919588413  0.7269923921652018  1.0000
  Br  Br2       1.0  0.726992412754486  0.7269924169481652  0.27300757853510216  1.0000
  Br  Br3       1.0  0.7269924281178085  0.27300757984402746  0.2730076213209954  1.0000
  Br  Br4       1.0  0.2730075718684394  0.7269923955607432  0.726992420216094  1.0000
  Br  Br5       1.0  0.2730075684962736  0.7269923905078362  0.2730076004382119  1.0000
  Br  Br6       1.0  0.7269923334208682  0.2730076663754906  0.7269923726322723  1.0000
