data_image0
_chemical_formula_structural       Sr2BeBr6
_chemical_formula_sum              "Sr2 Be1 Br6"
_cell_length_a       6.991970432850199
_cell_length_b       6.991970396805057
_cell_length_c       6.991970392267123
_cell_angle_alpha    59.999998917507334
_cell_angle_beta     60.00000001700876
_cell_angle_gamma    59.99999804080753

_space_group_name_H-M_alt    "P 1"
_space_group_IT_number       1

loop_
  _space_group_symop_operation_xyz
  'x, y, z'

loop_
  _atom_site_type_symbol
  _atom_site_label
  _atom_site_symmetry_multiplicity
  _atom_site_fract_x
  _atom_site_fract_y
  _atom_site_fract_z
  _atom_site_occupancy
  Sr  Sr1       1.0  0.2500000638351273  0.2499998422624394  0.2500000865639238  1.0000
  Sr  Sr2       1.0  0.7499999338161731  0.7500001363597312  0.749999953600872  1.0000
  Be  Be1       1.0  0.9999999584128006  1.576480398788372e-08  3.722480168575389e-08  1.0000
  Br  Br1       1.0  0.24458441579631113  0.2445844441940374  0.7554156045020116  1.0000
  Br  Br2       1.0  0.7554156447423219  0.755415643030112  0.24458442285894003  1.0000
  Br  Br3       1.0  0.755415659126507  0.24458428008809352  0.24458439455198838  1.0000
  Br  Br4       1.0  0.24458444186889147  0.755415561905779  0.755415507792012  1.0000
  Br  Br5       1.0  0.2445843276987438  0.7554156940793643  0.24458438972979127  1.0000
  Br  Br6       1.0  0.7554155402021817  0.24458439139314472  0.7554156003859059  1.0000
