data_image0
_chemical_formula_structural       Sr2BaF6
_chemical_formula_sum              "Sr2 Ba1 F6"
_cell_length_a       6.207349317404761
_cell_length_b       6.207349643616535
_cell_length_c       6.207349512527379
_cell_angle_alpha    59.999999390837495
_cell_angle_beta     59.99999857964057
_cell_angle_gamma    59.9999983811716

_space_group_name_H-M_alt    "P 1"
_space_group_IT_number       1

loop_
  _space_group_symop_operation_xyz
  'x, y, z'

loop_
  _atom_site_type_symbol
  _atom_site_label
  _atom_site_symmetry_multiplicity
  _atom_site_fract_x
  _atom_site_fract_y
  _atom_site_fract_z
  _atom_site_occupancy
  Sr  Sr1       1.0  0.24999972425493677  0.2500000957788909  0.24999997945864325  1.0000
  Sr  Sr2       1.0  0.7500000505673524  0.7499999085098872  0.7499999820888779  1.0000
  Ba  Ba1       1.0  1.3153707758053937e-09  0.9999999960538881  0.9999999803724545  1.0000
  F   F1        1.0  0.2711081816461693  0.27110806522776065  0.7288918791407359  1.0000
  F   F2        1.0  0.7288918693906994  0.7288918917076632  0.2711081774053331  1.0000
  F   F3        1.0  0.7288921330487885  0.2711081489498695  0.27110802049472965  1.0000
  F   F4        1.0  0.2711081073173889  0.7288917645783168  0.7288919711452713  1.0000
  F   F5        1.0  0.27110806918398334  0.7288919344703646  0.27110814034902725  1.0000
  F   F6        1.0  0.728891907779478  0.27110820004010583  0.7288918467252915  1.0000
