data_image0
_chemical_formula_structural       Sr2CdI6
_chemical_formula_sum              "Sr2 Cd1 I6"
_cell_length_a       7.979082293966672
_cell_length_b       7.97908238962193
_cell_length_c       7.9790823307279295
_cell_angle_alpha    60.00000080968706
_cell_angle_beta     59.999999923715826
_cell_angle_gamma    59.99999977154548

_space_group_name_H-M_alt    "P 1"
_space_group_IT_number       1

loop_
  _space_group_symop_operation_xyz
  'x, y, z'

loop_
  _atom_site_type_symbol
  _atom_site_label
  _atom_site_symmetry_multiplicity
  _atom_site_fract_x
  _atom_site_fract_y
  _atom_site_fract_z
  _atom_site_occupancy
  Sr  Sr1       1.0  0.2500000180712215  0.2500000521578843  0.24999995414600856  1.0000
  Sr  Sr2       1.0  0.7500000031869847  0.7499999231620896  0.7500000409521778  1.0000
  Cd  Cd1       1.0  0.999999999912215  4.6048337199324335e-09  3.4086507329684564e-08  1.0000
  I   I1        1.0  0.2584304848895064  0.2584304983498854  0.7415695120488168  1.0000
  I   I2        1.0  0.7415695171167003  0.7415694999942563  0.25843048868294727  1.0000
  I   I3        1.0  0.7415695123305956  0.2584304862459846  0.25843049577152555  1.0000
  I   I4        1.0  0.2584305087520405  0.7415694982836565  0.7415694998227201  1.0000
  I   I5        1.0  0.25843043673118593  0.7415695352338209  0.2584304544668182  1.0000
  I   I6        1.0  0.7415695240522727  0.258430499948989  0.7415695196316161  1.0000
