data_image0
_chemical_formula_structural       Sr2CI6
_chemical_formula_sum              "Sr2 C1 I6"
_cell_length_a       7.736592198852042
_cell_length_b       7.736592346969025
_cell_length_c       7.7365919903399325
_cell_angle_alpha    59.999998070938915
_cell_angle_beta     60.000000748979
_cell_angle_gamma    59.99999895055696

_space_group_name_H-M_alt    "P 1"
_space_group_IT_number       1

loop_
  _space_group_symop_operation_xyz
  'x, y, z'

loop_
  _atom_site_type_symbol
  _atom_site_label
  _atom_site_symmetry_multiplicity
  _atom_site_fract_x
  _atom_site_fract_y
  _atom_site_fract_z
  _atom_site_occupancy
  Sr  Sr1       1.0  0.25000000095320746  0.2500000576491787  0.24999993221403827  1.0000
  Sr  Sr2       1.0  0.7500000296086827  0.7499999180757198  0.7500000981245243  1.0000
  C   C1        1.0  6.413435135059641e-08  0.9999999240133731  1.109637484558087e-08  1.0000
  I   I1        1.0  0.24993775649648048  0.2499377562200521  0.7500622368043798  1.0000
  I   I2        1.0  0.7500622101431985  0.7500622321692861  0.24993777780118673  1.0000
  I   I3        1.0  0.7500622055726114  0.24993779930221582  0.24993776738651122  1.0000
  I   I4        1.0  0.24993776762429418  0.7500622365787645  0.7500622046839143  1.0000
  I   I5        1.0  0.24993774881915792  0.7500622638067104  0.24993778201652236  1.0000
  I   I6        1.0  0.7500622125876067  0.24993781639980123  0.7500621931745887  1.0000
