data_image0
_chemical_formula_structural       Sr2CoBr6
_chemical_formula_sum              "Sr2 Co1 Br6"
_cell_length_a       7.096918425261817
_cell_length_b       7.096918265989728
_cell_length_c       7.096918482064519
_cell_angle_alpha    59.99999921530884
_cell_angle_beta     60.00000017708714
_cell_angle_gamma    59.99999966002804

_space_group_name_H-M_alt    "P 1"
_space_group_IT_number       1

loop_
  _space_group_symop_operation_xyz
  'x, y, z'

loop_
  _atom_site_type_symbol
  _atom_site_label
  _atom_site_symmetry_multiplicity
  _atom_site_fract_x
  _atom_site_fract_y
  _atom_site_fract_z
  _atom_site_occupancy
  Sr  Sr1       1.0  0.2499999812360776  0.2500000292048713  0.2500000592970188  1.0000
  Sr  Sr2       1.0  0.7499999938195735  0.7499999909730706  0.7499999672518224  1.0000
  Co  Co1       1.0  0.999999961723562  0.9999999879198069  2.5178315405297295e-08  1.0000
  Br  Br1       1.0  0.24845006493497312  0.24845009427557305  0.7515498790793174  1.0000
  Br  Br2       1.0  0.7515499547248359  0.7515499189994014  0.24845006239300257  1.0000
  Br  Br3       1.0  0.7515499176716613  0.2484500963085837  0.24845008359483578  1.0000
  Br  Br4       1.0  0.24845006924985502  0.7515499273208418  0.7515499395225179  1.0000
  Br  Br5       1.0  0.24845010965333844  0.7515499165376249  0.24845005270126624  1.0000
  Br  Br6       1.0  0.7515499508151592  0.24845003288490142  0.7515499298832408  1.0000
