data_image0
_chemical_formula_structural       Sr2CdBr6
_chemical_formula_sum              "Sr2 Cd1 Br6"
_cell_length_a       7.315264151757
_cell_length_b       7.315264166454904
_cell_length_c       7.315264253362351
_cell_angle_alpha    59.99999994465777
_cell_angle_beta     59.99999985067124
_cell_angle_gamma    60.0000000951409

_space_group_name_H-M_alt    "P 1"
_space_group_IT_number       1

loop_
  _space_group_symop_operation_xyz
  'x, y, z'

loop_
  _atom_site_type_symbol
  _atom_site_label
  _atom_site_symmetry_multiplicity
  _atom_site_fract_x
  _atom_site_fract_y
  _atom_site_fract_z
  _atom_site_occupancy
  Sr  Sr1       1.0  0.2500000500888648  0.2500000208242279  0.24999995118399887  1.0000
  Sr  Sr2       1.0  0.749999974450661  0.7499999837837835  0.7500000163465329  1.0000
  Cd  Cd1       1.0  2.0982579337208787e-08  3.3484639561668137e-09  2.7477612268669145e-08  1.0000
  Br  Br1       1.0  0.25983708265855354  0.25983708728484756  0.7401629677869098  1.0000
  Br  Br2       1.0  0.7401629102156019  0.7401629223458599  0.25983710192025905  1.0000
  Br  Br3       1.0  0.7401629611757599  0.259837025323723  0.2598370591145945  1.0000
  Br  Br4       1.0  0.2598371144825194  0.740162892224229  0.7401629004135024  1.0000
  Br  Br5       1.0  0.2598370363948262  0.740162956243611  0.2598370793841023  1.0000
  Br  Br6       1.0  0.7401628538452083  0.2598371103109811  0.7401628928817786  1.0000
