data_image0
_chemical_formula_structural       Sr2CaBr6
_chemical_formula_sum              "Sr2 Ca1 Br6"
_cell_length_a       7.457071290830289
_cell_length_b       7.457071321413091
_cell_length_c       7.457071391428461
_cell_angle_alpha    59.99999959299176
_cell_angle_beta     59.999999562447904
_cell_angle_gamma    60.00000022137986

_space_group_name_H-M_alt    "P 1"
_space_group_IT_number       1

loop_
  _space_group_symop_operation_xyz
  'x, y, z'

loop_
  _atom_site_type_symbol
  _atom_site_label
  _atom_site_symmetry_multiplicity
  _atom_site_fract_x
  _atom_site_fract_y
  _atom_site_fract_z
  _atom_site_occupancy
  Sr  Sr1       1.0  0.2500000283725255  0.24999999302075526  0.24999996959722232  1.0000
  Sr  Sr2       1.0  0.7499999762715717  0.7499999757774773  0.7500000252024696  1.0000
  Ca  Ca1       1.0  2.532288644185497e-08  0.9999999983576062  0.9999999868187447  1.0000
  Br  Br1       1.0  0.26062218929255637  0.2606222410027971  0.7393777871700143  1.0000
  Br  Br2       1.0  0.7393778134112409  0.7393777754248599  0.2606222062412596  1.0000
  Br  Br3       1.0  0.7393777872920868  0.26062220090367716  0.2606222248963173  1.0000
  Br  Br4       1.0  0.26062221206522407  0.7393777744641316  0.7393778014461961  1.0000
  Br  Br5       1.0  0.26062218905401763  0.7393778062086505  0.26062221159544857  1.0000
  Br  Br6       1.0  0.7393777833057815  0.26062223157012754  0.7393777903352909  1.0000
