data_image0
_chemical_formula_structural       Sr2CrBr6
_chemical_formula_sum              "Sr2 Cr1 Br6"
_cell_length_a       7.16025617592918
_cell_length_b       7.160255913895645
_cell_length_c       7.1602561806913725
_cell_angle_alpha    59.99999859605044
_cell_angle_beta     59.9999993256549
_cell_angle_gamma    59.99999976153222

_space_group_name_H-M_alt    "P 1"
_space_group_IT_number       1

loop_
  _space_group_symop_operation_xyz
  'x, y, z'

loop_
  _atom_site_type_symbol
  _atom_site_label
  _atom_site_symmetry_multiplicity
  _atom_site_fract_x
  _atom_site_fract_y
  _atom_site_fract_z
  _atom_site_occupancy
  Sr  Sr1       1.0  0.2500000194154488  0.2500001240462077  0.24999990990539664  1.0000
  Sr  Sr2       1.0  0.7499999835502817  0.74999994794047  0.7500000727353708  1.0000
  Cr  Cr1       1.0  9.307829666296173e-08  0.9999999675009493  4.233347650800737e-08  1.0000
  Br  Br1       1.0  0.24641787494430006  0.2464178375735779  0.7535821365240921  1.0000
  Br  Br2       1.0  0.7535821334966833  0.753582116390227  0.24641785490615098  1.0000
  Br  Br3       1.0  0.7535820771733693  0.2464179006778834  0.246417965438224  1.0000
  Br  Br4       1.0  0.2464178934918383  0.7535820892059257  0.7535820716110433  1.0000
  Br  Br5       1.0  0.24641784814307896  0.7535821094667642  0.24641787265756546  1.0000
  Br  Br6       1.0  0.7535820759340688  0.2464178992322849  0.7535820791196486  1.0000
