data_image0
_chemical_formula_structural       Sr2CuBr6
_chemical_formula_sum              "Sr2 Cu1 Br6"
_cell_length_a       7.081166464417775
_cell_length_b       7.081166531221183
_cell_length_c       7.081166503951152
_cell_angle_alpha    59.99999987225826
_cell_angle_beta     59.999998932563685
_cell_angle_gamma    59.999999587264924

_space_group_name_H-M_alt    "P 1"
_space_group_IT_number       1

loop_
  _space_group_symop_operation_xyz
  'x, y, z'

loop_
  _atom_site_type_symbol
  _atom_site_label
  _atom_site_symmetry_multiplicity
  _atom_site_fract_x
  _atom_site_fract_y
  _atom_site_fract_z
  _atom_site_occupancy
  Sr  Sr1       1.0  0.25000003186003944  0.2500000156915581  0.24999999639045925  1.0000
  Sr  Sr2       1.0  0.7499999492499381  0.7499999675139642  0.7500000060874482  1.0000
  Cu  Cu1       1.0  0.9999999948282299  0.9999999861633546  0.9999999332455858  1.0000
  Br  Br1       1.0  0.2520654465522788  0.25206548805372836  0.7479345327957485  1.0000
  Br  Br2       1.0  0.74793457069512  0.7479345383913106  0.25206547094739395  1.0000
  Br  Br3       1.0  0.7479345380779663  0.25206548091690706  0.25206546703857424  1.0000
  Br  Br4       1.0  0.25206544271829023  0.7479345472577127  0.7479345823092834  1.0000
  Br  Br5       1.0  0.2520654781201106  0.747934493420817  0.25206547758341263  1.0000
  Br  Br6       1.0  0.7479345465401929  0.252065486325544  0.7479345359172397  1.0000
