data_image0
_chemical_formula_structural       Sr2CdCl6
_chemical_formula_sum              "Sr2 Cd1 Cl6"
_cell_length_a       6.912974332610795
_cell_length_b       6.912974377537596
_cell_length_c       6.912974571466651
_cell_angle_alpha    59.99999847774787
_cell_angle_beta     60.00000019161305
_cell_angle_gamma    59.99999923841279

_space_group_name_H-M_alt    "P 1"
_space_group_IT_number       1

loop_
  _space_group_symop_operation_xyz
  'x, y, z'

loop_
  _atom_site_type_symbol
  _atom_site_label
  _atom_site_symmetry_multiplicity
  _atom_site_fract_x
  _atom_site_fract_y
  _atom_site_fract_z
  _atom_site_occupancy
  Sr  Sr1       1.0  0.25000001716782216  0.24999995269365133  0.2500000329972905  1.0000
  Sr  Sr2       1.0  0.7500001349334553  0.7500000086721621  0.7499999284587273  1.0000
  Cd  Cd1       1.0  0.9999999579028054  7.618143486825991e-08  0.9999999453474413  1.0000
  Cl  Cl1       1.0  0.2581749583204519  0.25817501194500986  0.7418250189926788  1.0000
  Cl  Cl2       1.0  0.7418249590215651  0.7418249972556579  0.25817503881865  1.0000
  Cl  Cl3       1.0  0.7418249566960382  0.2581749803651284  0.25817502683843646  1.0000
  Cl  Cl4       1.0  0.25817500260707965  0.7418250182055726  0.7418249502123374  1.0000
  Cl  Cl5       1.0  0.2581749425072606  0.7418250487061386  0.2581750418949084  1.0000
  Cl  Cl6       1.0  0.7418250647638214  0.25817491620299726  0.7418250147959845  1.0000
