data_image0
_chemical_formula_structural       Sr2CrCl6
_chemical_formula_sum              "Sr2 Cr1 Cl6"
_cell_length_a       6.808298003792845
_cell_length_b       6.808298584997222
_cell_length_c       6.808298119580652
_cell_angle_alpha    60.00000019496513
_cell_angle_beta     60.000004456739624
_cell_angle_gamma    59.99999837623102

_space_group_name_H-M_alt    "P 1"
_space_group_IT_number       1

loop_
  _space_group_symop_operation_xyz
  'x, y, z'

loop_
  _atom_site_type_symbol
  _atom_site_label
  _atom_site_symmetry_multiplicity
  _atom_site_fract_x
  _atom_site_fract_y
  _atom_site_fract_z
  _atom_site_occupancy
  Sr  Sr1       1.0  0.2500000467337282  0.24999989066606745  0.24999997668950116  1.0000
  Sr  Sr2       1.0  0.7500000089344243  0.7499999742134168  0.7499999180340589  1.0000
  Cr  Cr1       1.0  0.9999999692275723  2.5004709769741294e-07  2.0762256280776003e-07  1.0000
  Cl  Cl1       1.0  0.24452715542035003  0.2445273278723503  0.7554727785602915  1.0000
  Cl  Cl2       1.0  0.7554726951469728  0.7554726791202423  0.24452729600549988  1.0000
  Cl  Cl3       1.0  0.7554727580085834  0.2445272622846718  0.24452724763213116  1.0000
  Cl  Cl4       1.0  0.24452737636131774  0.7554726259805117  0.7554725519838323  1.0000
  Cl  Cl5       1.0  0.24452716514613737  0.7554727699655407  0.2445273157383779  1.0000
  Cl  Cl6       1.0  0.7554728396737167  0.2445272118424436  0.7554727031062333  1.0000
