data_image0
_chemical_formula_structural       Sr2CuF6
_chemical_formula_sum              "Sr2 Cu1 F6"
_cell_length_a       5.5793183917540645
_cell_length_b       5.579318305858685
_cell_length_c       5.579318350535401
_cell_angle_alpha    60.00000005718605
_cell_angle_beta     60.00000088479695
_cell_angle_gamma    60.000000983323616

_space_group_name_H-M_alt    "P 1"
_space_group_IT_number       1

loop_
  _space_group_symop_operation_xyz
  'x, y, z'

loop_
  _atom_site_type_symbol
  _atom_site_label
  _atom_site_symmetry_multiplicity
  _atom_site_fract_x
  _atom_site_fract_y
  _atom_site_fract_z
  _atom_site_occupancy
  Sr  Sr1       1.0  0.2499999982078167  0.2500000031843793  0.25000000017825014  1.0000
  Sr  Sr2       1.0  0.750000007543273  0.7499999832113207  0.7499999946994123  1.0000
  Cu  Cu1       1.0  0.9999999873312629  1.3170908569893526e-08  0.999999996164247  1.0000
  F   F1        1.0  0.2496295199560227  0.24962947540089286  0.7503704735717093  1.0000
  F   F2        1.0  0.7503704871329582  0.7503705131899586  0.24962949982376137  1.0000
  F   F3        1.0  0.7503704816863053  0.24962949209631016  0.24962948948572933  1.0000
  F   F4        1.0  0.24962945781577017  0.7503705316169638  0.7503705359886559  1.0000
  F   F5        1.0  0.2496295360067852  0.750370504658656  0.2496294799322841  1.0000
  F   F6        1.0  0.7503705147950619  0.24962947076128736  0.7503705480932199  1.0000
