data_image0
_chemical_formula_structural       Sr2CaF6
_chemical_formula_sum              "Sr2 Ca1 F6"
_cell_length_a       5.798624960562249
_cell_length_b       5.798624948360067
_cell_length_c       5.798624852739303
_cell_angle_alpha    59.99999852376129
_cell_angle_beta     59.9999986141373
_cell_angle_gamma    59.99999726220683

_space_group_name_H-M_alt    "P 1"
_space_group_IT_number       1

loop_
  _space_group_symop_operation_xyz
  'x, y, z'

loop_
  _atom_site_type_symbol
  _atom_site_label
  _atom_site_symmetry_multiplicity
  _atom_site_fract_x
  _atom_site_fract_y
  _atom_site_fract_z
  _atom_site_occupancy
  Sr  Sr1       1.0  0.25000000780030873  0.2500000243069386  0.2499999804211582  1.0000
  Sr  Sr2       1.0  0.7500000001503304  0.7499999694264521  0.7500000149832371  1.0000
  Ca  Ca1       1.0  0.99999996568485  0.9999999894393522  0.9999999672524017  1.0000
  F   F1        1.0  0.2592276599718089  0.2592276203918491  0.7407722928302575  1.0000
  F   F2        1.0  0.7407723912256825  0.7407723332110748  0.25922758719585515  1.0000
  F   F3        1.0  0.7407723351360241  0.25922765897912947  0.2592277119044569  1.0000
  F   F4        1.0  0.25922756369145694  0.7407724530335346  0.7407723927419699  1.0000
  F   F5        1.0  0.25922763375427416  0.740772403401449  0.2592276454703855  1.0000
  F   F6        1.0  0.7407724386438574  0.2592275523136015  0.7407724194976801  1.0000
