data_image0
_chemical_formula_structural       Sr2CuI6
_chemical_formula_sum              "Sr2 Cu1 I6"
_cell_length_a       7.7353171410736845
_cell_length_b       7.7353169305604235
_cell_length_c       7.735317119700004
_cell_angle_alpha    60.00000182592542
_cell_angle_beta     59.99999869208084
_cell_angle_gamma    60.00000055920515

_space_group_name_H-M_alt    "P 1"
_space_group_IT_number       1

loop_
  _space_group_symop_operation_xyz
  'x, y, z'

loop_
  _atom_site_type_symbol
  _atom_site_label
  _atom_site_symmetry_multiplicity
  _atom_site_fract_x
  _atom_site_fract_y
  _atom_site_fract_z
  _atom_site_occupancy
  Sr  Sr1       1.0  0.25000004192479003  0.2500001073978715  0.24999992122842918  1.0000
  Sr  Sr2       1.0  0.7499999200498749  0.7499999944472724  0.7500000614472256  1.0000
  Cu  Cu1       1.0  0.9999999998344333  0.9999999825835278  1.2669334565391089e-08  1.0000
  I   I1        1.0  0.2516760073944664  0.2516759078647047  0.7483240667361911  1.0000
  I   I2        1.0  0.7483240308794102  0.7483240546486616  0.2516759642617767  1.0000
  I   I3        1.0  0.7483239845173418  0.25167599748670466  0.25167595422086264  1.0000
  I   I4        1.0  0.2516759900643698  0.7483240172760764  0.748324030787609  1.0000
  I   I5        1.0  0.2516760124623374  0.748323993482597  0.2516759522209688  1.0000
  I   I6        1.0  0.7483240183632552  0.25167594211440075  0.7483240364918209  1.0000
