data_image0
_chemical_formula_structural       Sr2CoCl6
_chemical_formula_sum              "Sr2 Co1 Cl6"
_cell_length_a       6.712953362330877
_cell_length_b       6.71295346748432
_cell_length_c       6.712953515737192
_cell_angle_alpha    60.000000045306564
_cell_angle_beta     59.99999978687848
_cell_angle_gamma    60.00000033221509

_space_group_name_H-M_alt    "P 1"
_space_group_IT_number       1

loop_
  _space_group_symop_operation_xyz
  'x, y, z'

loop_
  _atom_site_type_symbol
  _atom_site_label
  _atom_site_symmetry_multiplicity
  _atom_site_fract_x
  _atom_site_fract_y
  _atom_site_fract_z
  _atom_site_occupancy
  Sr  Sr1       1.0  0.24999999371699855  0.25000001674429995  0.24999999664731068  1.0000
  Sr  Sr2       1.0  0.7499999927922864  0.7500000411106496  0.7500000065582992  1.0000
  Co  Co1       1.0  0.9999999927559057  0.9999999288464458  3.919882409047522e-08  1.0000
  Cl  Cl1       1.0  0.2452784438261634  0.24527845538041967  0.7547215257488727  1.0000
  Cl  Cl2       1.0  0.7547215883450098  0.7547215532143768  0.24527842562820792  1.0000
  Cl  Cl3       1.0  0.7547215179457101  0.24527840449751942  0.24527851159642322  1.0000
  Cl  Cl4       1.0  0.24527846171894685  0.7547215913261263  0.7547215647782415  1.0000
  Cl  Cl5       1.0  0.24527842684639717  0.7547215998584876  0.24527837206544137  1.0000
  Cl  Cl6       1.0  0.754721575474788  0.24527841056075878  0.754721554593319  1.0000
