data_image0
_chemical_formula_structural       Sr2CoI6
_chemical_formula_sum              "Sr2 Co1 I6"
_cell_length_a       7.746116697240421
_cell_length_b       7.746116786213826
_cell_length_c       7.746116698289769
_cell_angle_alpha    60.00000067773358
_cell_angle_beta     60.00000096668494
_cell_angle_gamma    60.000000246790634

_space_group_name_H-M_alt    "P 1"
_space_group_IT_number       1

loop_
  _space_group_symop_operation_xyz
  'x, y, z'

loop_
  _atom_site_type_symbol
  _atom_site_label
  _atom_site_symmetry_multiplicity
  _atom_site_fract_x
  _atom_site_fract_y
  _atom_site_fract_z
  _atom_site_occupancy
  Sr  Sr1       1.0  0.2500000018379078  0.24999994680979065  0.2500001004868014  1.0000
  Sr  Sr2       1.0  0.7500000357613317  0.7500000001212983  0.7499999108586339  1.0000
  Co  Co1       1.0  2.288994326604359e-09  0.9999999841889181  0.9999999912694103  1.0000
  I   I1        1.0  0.24618525551036485  0.2461852686572139  0.7538147056500774  1.0000
  I   I2        1.0  0.7538147135458184  0.7538147810459074  0.24618526405245011  1.0000
  I   I3        1.0  0.7538147526229625  0.24618528039868223  0.24618530606366126  1.0000
  I   I4        1.0  0.24618522381172617  0.7538147471689244  0.7538147174922709  1.0000
  I   I5        1.0  0.24618528379093868  0.7538147267380549  0.24618530699795177  1.0000
  I   I6        1.0  0.753814723707849  0.2461852613018469  0.7538146975523335  1.0000
