data_image0
_chemical_formula_structural       Sr2CuCl6
_chemical_formula_sum              "Sr2 Cu1 Cl6"
_cell_length_a       6.684231630287255
_cell_length_b       6.684231316504169
_cell_length_c       6.68423126989571
_cell_angle_alpha    59.99999839854003
_cell_angle_beta     60.00000098587727
_cell_angle_gamma    60.00000092179031

_space_group_name_H-M_alt    "P 1"
_space_group_IT_number       1

loop_
  _space_group_symop_operation_xyz
  'x, y, z'

loop_
  _atom_site_type_symbol
  _atom_site_label
  _atom_site_symmetry_multiplicity
  _atom_site_fract_x
  _atom_site_fract_y
  _atom_site_fract_z
  _atom_site_occupancy
  Sr  Sr1       1.0  0.24999990625860352  0.2500000304306824  0.25000002295434953  1.0000
  Sr  Sr2       1.0  0.7499999584461716  0.7499999941806894  0.7500002399449994  1.0000
  Cu  Cu1       1.0  1.5358977757149026e-09  0.9999999798448131  0.9999999554515443  1.0000
  Cl  Cl1       1.0  0.2497744320971206  0.24977449965297807  0.7502255276803139  1.0000
  Cl  Cl2       1.0  0.7502256463295691  0.7502254901448978  0.24977438096249696  1.0000
  Cl  Cl3       1.0  0.750225562050718  0.2497744385523476  0.24977445906283732  1.0000
  Cl  Cl4       1.0  0.24977452086089513  0.7502255274257608  0.7502254697198045  1.0000
  Cl  Cl5       1.0  0.24977451471520082  0.7502255216530442  0.24977440734663126  1.0000
  Cl  Cl6       1.0  0.7502254375860641  0.2497744992937554  0.7502255323277887  1.0000
