data_image0
_chemical_formula_structural       Sr2CBr6
_chemical_formula_sum              "Sr2 C1 Br6"
_cell_length_a       7.191772142774735
_cell_length_b       7.1917719823262996
_cell_length_c       7.191772139390703
_cell_angle_alpha    59.999998845158785
_cell_angle_beta     59.99999998313731
_cell_angle_gamma    59.9999997326578

_space_group_name_H-M_alt    "P 1"
_space_group_IT_number       1

loop_
  _space_group_symop_operation_xyz
  'x, y, z'

loop_
  _atom_site_type_symbol
  _atom_site_label
  _atom_site_symmetry_multiplicity
  _atom_site_fract_x
  _atom_site_fract_y
  _atom_site_fract_z
  _atom_site_occupancy
  Sr  Sr1       1.0  0.2500000119008681  0.24999998777589305  0.2500000354781745  1.0000
  Sr  Sr2       1.0  0.7500000017905177  0.7499999735455637  0.7500000265100851  1.0000
  C   C1        1.0  0.9999999977962011  0.9999998910092353  5.281632642681362e-08  1.0000
  Br  Br1       1.0  0.24955799795794154  0.24955801931698515  0.7504419808372353  1.0000
  Br  Br2       1.0  0.7504420477143389  0.7504420050147579  0.24955798220775258  1.0000
  Br  Br3       1.0  0.7504419622493093  0.24955802268281266  0.24955802165492164  1.0000
  Br  Br4       1.0  0.24955798158931636  0.7504420374115244  0.7504419507874729  1.0000
  Br  Br5       1.0  0.24955799199934886  0.7504420500232502  0.2495579192907788  1.0000
  Br  Br6       1.0  0.7504419956603514  0.2495580134770485  0.7504420462238319  1.0000
