data_image0
_chemical_formula_structural       Sr2CCl6
_chemical_formula_sum              "Sr2 C1 Cl6"
_cell_length_a       6.7265291247590655
_cell_length_b       6.726528967415611
_cell_length_c       6.726529053287782
_cell_angle_alpha    60.00000069079865
_cell_angle_beta     60.0000001689546
_cell_angle_gamma    60.0000010225542

_space_group_name_H-M_alt    "P 1"
_space_group_IT_number       1

loop_
  _space_group_symop_operation_xyz
  'x, y, z'

loop_
  _atom_site_type_symbol
  _atom_site_label
  _atom_site_symmetry_multiplicity
  _atom_site_fract_x
  _atom_site_fract_y
  _atom_site_fract_z
  _atom_site_occupancy
  Sr  Sr1       1.0  0.24999998883029215  0.24999999544761564  0.25000001457813803  1.0000
  Sr  Sr2       1.0  0.7500000039444851  0.7500000027297586  0.7499999603214225  1.0000
  C   C1        1.0  5.8573903161118694e-08  0.9999999890753932  1.3341622366621466e-08  1.0000
  Cl  Cl1       1.0  0.25200637841493007  0.2520064429278659  0.7479935950720904  1.0000
  Cl  Cl2       1.0  0.7479935411335346  0.747993584381796  0.2520064390407536  1.0000
  Cl  Cl3       1.0  0.7479935613210605  0.2520064745842433  0.25200644143324535  1.0000
  Cl  Cl4       1.0  0.2520064649712608  0.7479935363385075  0.7479935252013629  1.0000
  Cl  Cl5       1.0  0.25200648244160867  0.747993496964035  0.25200649089279337  1.0000
  Cl  Cl6       1.0  0.7479935166106577  0.25200647208105187  0.7479935251671824  1.0000
