data_image0
_chemical_formula_structural       Sr2CdF6
_chemical_formula_sum              "Sr2 Cd1 F6"
_cell_length_a       5.824416061906965
_cell_length_b       5.824416008077421
_cell_length_c       5.824416054913241
_cell_angle_alpha    60.00000270931068
_cell_angle_beta     60.00000167553802
_cell_angle_gamma    60.000000906353925

_space_group_name_H-M_alt    "P 1"
_space_group_IT_number       1

loop_
  _space_group_symop_operation_xyz
  'x, y, z'

loop_
  _atom_site_type_symbol
  _atom_site_label
  _atom_site_symmetry_multiplicity
  _atom_site_fract_x
  _atom_site_fract_y
  _atom_site_fract_z
  _atom_site_occupancy
  Sr  Sr1       1.0  0.24999996417817535  0.2499999975991415  0.2499999887712331  1.0000
  Sr  Sr2       1.0  0.7499999965668682  0.749999978077987  0.7500000178042253  1.0000
  Cd  Cd1       1.0  3.160001552516721e-08  6.308329762271505e-09  0.9999999364061597  1.0000
  F   F1        1.0  0.26044122864132335  0.2604413403119959  0.7395587100205173  1.0000
  F   F2        1.0  0.7395587559935541  0.7395586648040144  0.2604413797728447  1.0000
  F   F3        1.0  0.7395586919374681  0.26044131376912383  0.2604412784019004  1.0000
  F   F4        1.0  0.2604413393570105  0.739558670319113  0.7395587092962114  1.0000
  F   F5        1.0  0.260441283811825  0.7395587181011336  0.2604412731305673  1.0000
  F   F6        1.0  0.7395587371886541  0.2604413206593073  0.7395587009629947  1.0000
