data_image0
_chemical_formula_structural       Sr2CaCl6
_chemical_formula_sum              "Sr2 Ca1 Cl6"
_cell_length_a       7.033096591607228
_cell_length_b       7.033096507865411
_cell_length_c       7.033096425590742
_cell_angle_alpha    60.000000349312785
_cell_angle_beta     60.0000003906432
_cell_angle_gamma    59.999999428730376

_space_group_name_H-M_alt    "P 1"
_space_group_IT_number       1

loop_
  _space_group_symop_operation_xyz
  'x, y, z'

loop_
  _atom_site_type_symbol
  _atom_site_label
  _atom_site_symmetry_multiplicity
  _atom_site_fract_x
  _atom_site_fract_y
  _atom_site_fract_z
  _atom_site_occupancy
  Sr  Sr1       1.0  0.2499999970946856  0.24999999660452668  0.25000001900672103  1.0000
  Sr  Sr2       1.0  0.7499999433244722  0.7499999218989002  0.7500000211152719  1.0000
  Ca  Ca1       1.0  0.9999999765167036  2.6121030946768604e-08  0.9999999460727257  1.0000
  Cl  Cl1       1.0  0.2603033882345476  0.2603034011013397  0.7396966264450023  1.0000
  Cl  Cl2       1.0  0.7396966240741908  0.73969662188621  0.26030337952039456  1.0000
  Cl  Cl3       1.0  0.7396966908443378  0.2603033713918976  0.2603033175862432  1.0000
  Cl  Cl4       1.0  0.2603033486951036  0.7396966585612602  0.7396966727028469  1.0000
  Cl  Cl5       1.0  0.2603033706483584  0.739696647610657  0.2603033408521241  1.0000
  Cl  Cl6       1.0  0.7396966618600576  0.2603033492558617  0.7396966851361355  1.0000
