data_image0
_chemical_formula_structural       Sr2FeBr6
_chemical_formula_sum              "Sr2 Fe1 Br6"
_cell_length_a       6.974490999826618
_cell_length_b       6.974490996203379
_cell_length_c       6.9744913486244915
_cell_angle_alpha    59.99999925436017
_cell_angle_beta     60.00000261974695
_cell_angle_gamma    60.000003783413476

_space_group_name_H-M_alt    "P 1"
_space_group_IT_number       1

loop_
  _space_group_symop_operation_xyz
  'x, y, z'

loop_
  _atom_site_type_symbol
  _atom_site_label
  _atom_site_symmetry_multiplicity
  _atom_site_fract_x
  _atom_site_fract_y
  _atom_site_fract_z
  _atom_site_occupancy
  Sr  Sr1       1.0  0.2499998357349181  0.2500000733686081  0.24999999586897267  1.0000
  Sr  Sr2       1.0  0.7500002879046671  0.7499998249980332  0.7499999625650488  1.0000
  Fe  Fe1       1.0  0.9999999147921936  1.5628709171622495e-07  0.9999998110441498  1.0000
  Br  Br1       1.0  0.2361458306557051  0.23614585296129784  0.7638541160522784  1.0000
  Br  Br2       1.0  0.763854064493106  0.7638540752579246  0.23614594743601747  1.0000
  Br  Br3       1.0  0.763854037149278  0.2361460189950966  0.23614587948886778  1.0000
  Br  Br4       1.0  0.2361458860242177  0.7638541181922643  0.7638541429280199  1.0000
  Br  Br5       1.0  0.23614595809469538  0.7638540175702521  0.23614592931619247  1.0000
  Br  Br6       1.0  0.7638541601935943  0.23614587201621404  0.763854199636344  1.0000
