data_image0
_chemical_formula_structural       Sr2FeCl6
_chemical_formula_sum              "Sr2 Fe1 Cl6"
_cell_length_a       6.686381449066183
_cell_length_b       6.6863815495006005
_cell_length_c       6.68638158781266
_cell_angle_alpha    60.00000026400191
_cell_angle_beta     59.999999467733346
_cell_angle_gamma    60.000000534361575

_space_group_name_H-M_alt    "P 1"
_space_group_IT_number       1

loop_
  _space_group_symop_operation_xyz
  'x, y, z'

loop_
  _atom_site_type_symbol
  _atom_site_label
  _atom_site_symmetry_multiplicity
  _atom_site_fract_x
  _atom_site_fract_y
  _atom_site_fract_z
  _atom_site_occupancy
  Sr  Sr1       1.0  0.24999998024877815  0.2500000455907644  0.2500000100778424  1.0000
  Sr  Sr2       1.0  0.7499999886308987  0.7500000708310738  0.7500000183237733  1.0000
  Fe  Fe1       1.0  6.53604344781389e-08  1.0440693056385578e-07  0.9999999405411307  1.0000
  Cl  Cl1       1.0  0.2420504050416296  0.24205041442443803  0.757949579741149  1.0000
  Cl  Cl2       1.0  0.75794948312974  0.7579494364008226  0.24205054105173823  1.0000
  Cl  Cl3       1.0  0.7579495396946826  0.24205046412335976  0.24205042196979018  1.0000
  Cl  Cl4       1.0  0.2420505553777078  0.7579494343261151  0.7579494878081555  1.0000
  Cl  Cl5       1.0  0.24205048694395093  0.7579495180640727  0.24205046890497176  1.0000
  Cl  Cl6       1.0  0.7579494975321398  0.24205050494103808  0.7579495355925571  1.0000
