data_image0
_chemical_formula_structural       Sr2FeI6
_chemical_formula_sum              "Sr2 Fe1 I6"
_cell_length_a       7.779099442390956
_cell_length_b       7.779099527352098
_cell_length_c       7.779099551737526
_cell_angle_alpha    59.99999894760661
_cell_angle_beta     60.000000558635904
_cell_angle_gamma    59.99999930005052

_space_group_name_H-M_alt    "P 1"
_space_group_IT_number       1

loop_
  _space_group_symop_operation_xyz
  'x, y, z'

loop_
  _atom_site_type_symbol
  _atom_site_label
  _atom_site_symmetry_multiplicity
  _atom_site_fract_x
  _atom_site_fract_y
  _atom_site_fract_z
  _atom_site_occupancy
  Sr  Sr1       1.0  0.250000019530229  0.24999997077741382  0.25000004922566504  1.0000
  Sr  Sr2       1.0  0.7499999233181427  0.7499999485435472  0.7499999940992725  1.0000
  Fe  Fe1       1.0  0.9999999875257038  0.9999999795327422  2.2898256142701176e-08  1.0000
  I   I1        1.0  0.24731674990609362  0.247316743770075  0.752683255649589  1.0000
  I   I2        1.0  0.7526833369228124  0.7526833314169248  0.24731668274441587  1.0000
  I   I3        1.0  0.7526833015583844  0.247316666181034  0.24731671812614747  1.0000
  I   I4        1.0  0.2473167295259269  0.7526833224137223  0.7526832554423936  1.0000
  I   I5        1.0  0.247316692252758  0.7526833250803174  0.24731669479490537  1.0000
  I   I6        1.0  0.7526832624833134  0.24731672334180763  0.7526833243134494  1.0000
