data_image0
_chemical_formula_structural       Sr2FeF6
_chemical_formula_sum              "Sr2 Fe1 F6"
_cell_length_a       5.6442251839394215
_cell_length_b       5.644225038555177
_cell_length_c       5.644225007295379
_cell_angle_alpha    59.99999840669604
_cell_angle_beta     59.999998645289416
_cell_angle_gamma    59.99999878415563

_space_group_name_H-M_alt    "P 1"
_space_group_IT_number       1

loop_
  _space_group_symop_operation_xyz
  'x, y, z'

loop_
  _atom_site_type_symbol
  _atom_site_label
  _atom_site_symmetry_multiplicity
  _atom_site_fract_x
  _atom_site_fract_y
  _atom_site_fract_z
  _atom_site_occupancy
  Sr  Sr1       1.0  0.24999998283898978  0.2499999603974443  0.24999996848348777  1.0000
  Sr  Sr2       1.0  0.7500000356782718  0.7500000309159817  0.7499999677236713  1.0000
  Fe  Fe1       1.0  0.9999999750567077  5.641760904474371e-08  0.9999998336664354  1.0000
  F   F1        1.0  0.2501452261978473  0.2501451998043603  0.7498547813731536  1.0000
  F   F2        1.0  0.7498547450176124  0.7498548045285127  0.2501452339854683  1.0000
  F   F3        1.0  0.7498547888257496  0.25014516049933594  0.250145258584807  1.0000
  F   F4        1.0  0.2501451632328336  0.7498548828918796  0.7498548602133167  1.0000
  F   F5        1.0  0.25014523175648146  0.7498547256994624  0.2501452958140974  1.0000
  F   F6        1.0  0.7498548352007625  0.25014515711856283  0.7498548334192342  1.0000
