data_image0
_chemical_formula_structural       Sr2GeI6
_chemical_formula_sum              "Sr2 Ge1 I6"
_cell_length_a       7.9751979670486595
_cell_length_b       7.975197973396343
_cell_length_c       7.975197932377974
_cell_angle_alpha    60.00000023114842
_cell_angle_beta     60.00000065080938
_cell_angle_gamma    59.99999944521837

_space_group_name_H-M_alt    "P 1"
_space_group_IT_number       1

loop_
  _space_group_symop_operation_xyz
  'x, y, z'

loop_
  _atom_site_type_symbol
  _atom_site_label
  _atom_site_symmetry_multiplicity
  _atom_site_fract_x
  _atom_site_fract_y
  _atom_site_fract_z
  _atom_site_occupancy
  Sr  Sr1       1.0  0.25000004350053395  0.25000010501094877  0.24999992102587046  1.0000
  Sr  Sr2       1.0  0.7500000275478159  0.749999994073193  0.74999998004988  1.0000
  Ge  Ge1       1.0  0.9999999860483224  0.9999999723575419  2.205095519607095e-08  1.0000
  I   I1        1.0  0.25852466344735003  0.25852464531238073  0.741475345177861  1.0000
  I   I2        1.0  0.7414753368915755  0.7414753401305444  0.2585246668815203  1.0000
  I   I3        1.0  0.7414753157031677  0.2585246842713543  0.25852467424676706  1.0000
  I   I4        1.0  0.258524655342228  0.7414752934931103  0.7414753675835958  1.0000
  I   I5        1.0  0.2585246397197949  0.7414753155840262  0.25852466109934025  1.0000
  I   I6        1.0  0.7414753325250507  0.25852464989490154  0.7414753586885438  1.0000
