data_image0
_chemical_formula_structural       Sr2GeF6
_chemical_formula_sum              "Sr2 Ge1 F6"
_cell_length_a       5.874635829500972
_cell_length_b       5.874636287426555
_cell_length_c       5.874635799172431
_cell_angle_alpha    60.00000079772493
_cell_angle_beta     60.000000851878845
_cell_angle_gamma    60.000001065990695

_space_group_name_H-M_alt    "P 1"
_space_group_IT_number       1

loop_
  _space_group_symop_operation_xyz
  'x, y, z'

loop_
  _atom_site_type_symbol
  _atom_site_label
  _atom_site_symmetry_multiplicity
  _atom_site_fract_x
  _atom_site_fract_y
  _atom_site_fract_z
  _atom_site_occupancy
  Sr  Sr1       1.0  0.24999997409506358  0.25000005668186737  0.24999991929888143  1.0000
  Sr  Sr2       1.0  0.7499999893156138  0.750000022024716  0.7499999311660664  1.0000
  Ge  Ge1       1.0  0.9999999272534729  3.5441616104740776e-08  1.8887577297317034e-07  1.0000
  F   F1        1.0  0.2569748162427476  0.2569747382061002  0.7430252732182464  1.0000
  F   F2        1.0  0.7430251793938046  0.7430251966491983  0.2569748271139919  1.0000
  F   F3        1.0  0.7430252006849228  0.256974806711542  0.2569747352002981  1.0000
  F   F4        1.0  0.2569749149910577  0.7430250864477356  0.7430251931860494  1.0000
  F   F5        1.0  0.2569747406177561  0.7430252339640843  0.2569747402345913  1.0000
  F   F6        1.0  0.7430252370288353  0.2569748197248844  0.7430251411547051  1.0000
