data_image0
_chemical_formula_structural       Sr2GeBr6
_chemical_formula_sum              "Sr2 Ge1 Br6"
_cell_length_a       7.351853605516966
_cell_length_b       7.351853748036847
_cell_length_c       7.35185377034737
_cell_angle_alpha    59.99999847864423
_cell_angle_beta     60.00000024495222
_cell_angle_gamma    59.99999770424858

_space_group_name_H-M_alt    "P 1"
_space_group_IT_number       1

loop_
  _space_group_symop_operation_xyz
  'x, y, z'

loop_
  _atom_site_type_symbol
  _atom_site_label
  _atom_site_symmetry_multiplicity
  _atom_site_fract_x
  _atom_site_fract_y
  _atom_site_fract_z
  _atom_site_occupancy
  Sr  Sr1       1.0  0.24999995162831865  0.25000009653442407  0.2499999444698051  1.0000
  Sr  Sr2       1.0  0.7499999969763306  0.7499999764141732  0.7500000549783976  1.0000
  Ge  Ge1       1.0  9.152639264153544e-08  0.9999998950483332  3.6637064335100885e-08  1.0000
  Br  Br1       1.0  0.25664561387220536  0.2566456908236565  0.7433543222787113  1.0000
  Br  Br2       1.0  0.7433544596692927  0.7433543371456537  0.2566456167876946  1.0000
  Br  Br3       1.0  0.7433543422983125  0.25664565020306335  0.25664563412390734  1.0000
  Br  Br4       1.0  0.25664561198730385  0.7433543444482601  0.743354423395668  1.0000
  Br  Br5       1.0  0.2566455966325395  0.7433543524370098  0.2566455939361828  1.0000
  Br  Br6       1.0  0.7433543305713515  0.25664566220510937  0.7433543678341725  1.0000
