data_image0
_chemical_formula_structural       Sr2HgCl6
_chemical_formula_sum              "Sr2 Hg1 Cl6"
_cell_length_a       7.030423941684241
_cell_length_b       7.030424104754133
_cell_length_c       7.030424007309583
_cell_angle_alpha    60.00000139518477
_cell_angle_beta     59.99999970827551
_cell_angle_gamma    60.00000085189909

_space_group_name_H-M_alt    "P 1"
_space_group_IT_number       1

loop_
  _space_group_symop_operation_xyz
  'x, y, z'

loop_
  _atom_site_type_symbol
  _atom_site_label
  _atom_site_symmetry_multiplicity
  _atom_site_fract_x
  _atom_site_fract_y
  _atom_site_fract_z
  _atom_site_occupancy
  Sr  Sr1       1.0  0.24999997354652279  0.2500000330897015  0.2500000520148064  1.0000
  Sr  Sr2       1.0  0.7499999900061438  0.7499999355150894  0.7500000097931907  1.0000
  Hg  Hg1       1.0  0.9999999856820605  3.3099216046780406e-08  5.6039270540404224e-08  1.0000
  Cl  Cl1       1.0  0.26104344705927524  0.2610434887561489  0.7389565315117699  1.0000
  Cl  Cl2       1.0  0.7389565154629023  0.7389565913407352  0.2610434309713573  1.0000
  Cl  Cl3       1.0  0.7389565660726787  0.2610434469297257  0.26104341820526167  1.0000
  Cl  Cl4       1.0  0.2610435473741657  0.7389564415401212  0.7389564849752476  1.0000
  Cl  Cl5       1.0  0.26104342281898246  0.7389565636668718  0.26104347034480796  1.0000
  Cl  Cl6       1.0  0.7389565472692322  0.26104346416809365  0.7389565457788246  1.0000
