data_image0
_chemical_formula_structural       Sr2HgI6
_chemical_formula_sum              "Sr2 Hg1 I6"
_cell_length_a       8.016494382585343
_cell_length_b       8.016494367745224
_cell_length_c       8.016494269140761
_cell_angle_alpha    59.99999841648962
_cell_angle_beta     60.000000260398664
_cell_angle_gamma    59.99999972751429

_space_group_name_H-M_alt    "P 1"
_space_group_IT_number       1

loop_
  _space_group_symop_operation_xyz
  'x, y, z'

loop_
  _atom_site_type_symbol
  _atom_site_label
  _atom_site_symmetry_multiplicity
  _atom_site_fract_x
  _atom_site_fract_y
  _atom_site_fract_z
  _atom_site_occupancy
  Sr  Sr1       1.0  0.24999998220443304  0.25000004502451206  0.2500000377965899  1.0000
  Sr  Sr2       1.0  0.7499999967679492  0.7499999975732378  0.7499999649586725  1.0000
  Hg  Hg1       1.0  0.999999971541384  0.9999999816666274  0.9999999672617313  1.0000
  I   I1        1.0  0.26149728754199586  0.26149731451591757  0.7385026722804469  1.0000
  I   I2        1.0  0.7385027903241195  0.7385027036373365  0.26149720468280385  1.0000
  I   I3        1.0  0.7385026418978922  0.26149732703234874  0.2614973227395844  1.0000
  I   I4        1.0  0.26149725012588837  0.7385027430654597  0.7385027771010654  1.0000
  I   I5        1.0  0.2614973115935864  0.7385026740093973  0.26149727803846623  1.0000
  I   I6        1.0  0.7385027701594431  0.26149721581023844  0.7385027721692368  1.0000
