data_image0
_chemical_formula_structural       Sr2HgBr6
_chemical_formula_sum              "Sr2 Hg1 Br6"
_cell_length_a       7.410940761243814
_cell_length_b       7.4109407209170275
_cell_length_c       7.410940761995057
_cell_angle_alpha    60.000000031283044
_cell_angle_beta     59.99999974884948
_cell_angle_gamma    60.00000000752306

_space_group_name_H-M_alt    "P 1"
_space_group_IT_number       1

loop_
  _space_group_symop_operation_xyz
  'x, y, z'

loop_
  _atom_site_type_symbol
  _atom_site_label
  _atom_site_symmetry_multiplicity
  _atom_site_fract_x
  _atom_site_fract_y
  _atom_site_fract_z
  _atom_site_occupancy
  Sr  Sr1       1.0  0.24999999799153164  0.25000000026468433  0.25000001551756373  1.0000
  Sr  Sr2       1.0  0.7499999882930576  0.7499999991414353  0.7500000002935836  1.0000
  Hg  Hg1       1.0  0.9999999887314397  0.9999999917369135  0.9999999706344892  1.0000
  Br  Br1       1.0  0.26297162953201014  0.2629716263773698  0.7370283649634274  1.0000
  Br  Br2       1.0  0.7370283799350873  0.7370283829444534  0.262971611359556  1.0000
  Br  Br3       1.0  0.7370283606462603  0.262971646075083  0.2629716239297611  1.0000
  Br  Br4       1.0  0.2629716108592882  0.7370283929938515  0.7370283956317756  1.0000
  Br  Br5       1.0  0.2629716449499768  0.7370283550388989  0.2629716249046927  1.0000
  Br  Br6       1.0  0.737028396073446  0.2629716063570235  0.7370283946863434  1.0000
