data_image0
_chemical_formula_structural       Sr2InI6
_chemical_formula_sum              "Sr2 In1 I6"
_cell_length_a       8.049810275409063
_cell_length_b       8.049810238147348
_cell_length_c       8.049810225554669
_cell_angle_alpha    60.000000829364716
_cell_angle_beta     59.99999983089082
_cell_angle_gamma    59.99999932908328

_space_group_name_H-M_alt    "P 1"
_space_group_IT_number       1

loop_
  _space_group_symop_operation_xyz
  'x, y, z'

loop_
  _atom_site_type_symbol
  _atom_site_label
  _atom_site_symmetry_multiplicity
  _atom_site_fract_x
  _atom_site_fract_y
  _atom_site_fract_z
  _atom_site_occupancy
  Sr  Sr1       1.0  0.2499999403813723  0.25000002775814456  0.25000003746635463  1.0000
  Sr  Sr2       1.0  0.7500000616833451  0.7499999813367405  0.7499999698046419  1.0000
  In  In1       1.0  0.9999999820184732  1.5214580775515387e-08  1.3834731645159336e-09  1.0000
  I   I1        1.0  0.2562010455088114  0.25620103332276206  0.743798959433448  1.0000
  I   I2        1.0  0.7437989587585443  0.7437989605575424  0.25620103943633593  1.0000
  I   I3        1.0  0.7437989486991161  0.25620104670780114  0.2562010187966733  1.0000
  I   I4        1.0  0.2562010358191431  0.7437989547797935  0.7437989675100342  1.0000
  I   I5        1.0  0.25620107054374613  0.7437989421851429  0.2562010342555885  1.0000
  I   I6        1.0  0.7437989573559002  0.25620104104495517  0.7437989705458061  1.0000
