data_image0
_chemical_formula_structural       Sr2InCl6
_chemical_formula_sum              "Sr2 In1 Cl6"
_cell_length_a       7.012414496944045
_cell_length_b       7.012414650870882
_cell_length_c       7.0124145360575145
_cell_angle_alpha    60.00000020312176
_cell_angle_beta     60.00000080865609
_cell_angle_gamma    59.99999979712726

_space_group_name_H-M_alt    "P 1"
_space_group_IT_number       1

loop_
  _space_group_symop_operation_xyz
  'x, y, z'

loop_
  _atom_site_type_symbol
  _atom_site_label
  _atom_site_symmetry_multiplicity
  _atom_site_fract_x
  _atom_site_fract_y
  _atom_site_fract_z
  _atom_site_occupancy
  Sr  Sr1       1.0  0.2499999861166238  0.24999998379312344  0.25000002226733625  1.0000
  Sr  Sr2       1.0  0.749999982949763  0.7499999566189841  0.7500000518822563  1.0000
  In  In1       1.0  2.431737123718978e-08  0.9999999912673095  2.358059120413459e-08  1.0000
  Cl  Cl1       1.0  0.2535879244717443  0.25358791045657797  0.7464120900569086  1.0000
  Cl  Cl2       1.0  0.7464120933606047  0.7464121207755057  0.2535878686663603  1.0000
  Cl  Cl3       1.0  0.7464121585199482  0.25358784147632785  0.25358784874714935  1.0000
  Cl  Cl4       1.0  0.25358785671830064  0.7464121530784578  0.7464121296118187  1.0000
  Cl  Cl5       1.0  0.2535878682701108  0.7464121480863631  0.2535878313291512  1.0000
  Cl  Cl6       1.0  0.7464121060672242  0.25358789013187316  0.7464121356662515  1.0000
