data_image0
_chemical_formula_structural       Sr2InF6
_chemical_formula_sum              "Sr2 In1 F6"
_cell_length_a       5.947495499004315
_cell_length_b       5.947496311531467
_cell_length_c       5.947495844934646
_cell_angle_alpha    60.000000671930415
_cell_angle_beta     60.00000118752894
_cell_angle_gamma    60.00000052040224

_space_group_name_H-M_alt    "P 1"
_space_group_IT_number       1

loop_
  _space_group_symop_operation_xyz
  'x, y, z'

loop_
  _atom_site_type_symbol
  _atom_site_label
  _atom_site_symmetry_multiplicity
  _atom_site_fract_x
  _atom_site_fract_y
  _atom_site_fract_z
  _atom_site_occupancy
  Sr  Sr1       1.0  0.2499999416059385  0.25000001619251083  0.25000000107316117  1.0000
  Sr  Sr2       1.0  0.7499999993770283  0.7499999559107703  0.7500000446608792  1.0000
  In  In1       1.0  4.784737789270987e-09  2.0592612061577336e-08  0.9999999889927048  1.0000
  F   F1        1.0  0.2510133416998956  0.25101331035303637  0.7489866753981109  1.0000
  F   F2        1.0  0.7489866605863681  0.7489867049947277  0.2510133500082585  1.0000
  F   F3        1.0  0.7489867903278348  0.25101323792150027  0.25101325255259466  1.0000
  F   F4        1.0  0.2510132484160726  0.7489867321225168  0.7489867621444087  1.0000
  F   F5        1.0  0.25101328114255805  0.7489867385384218  0.25101328664849676  1.0000
  F   F6        1.0  0.7489867450304469  0.2510132459204223  0.7489867792493208  1.0000
