data_image0
_chemical_formula_structural       Sr2InBr6
_chemical_formula_sum              "Sr2 In1 Br6"
_cell_length_a       7.380468961555639
_cell_length_b       7.380468961837799
_cell_length_c       7.3804690116359275
_cell_angle_alpha    59.999999552581826
_cell_angle_beta     59.9999996615946
_cell_angle_gamma    60.00000056154336

_space_group_name_H-M_alt    "P 1"
_space_group_IT_number       1

loop_
  _space_group_symop_operation_xyz
  'x, y, z'

loop_
  _atom_site_type_symbol
  _atom_site_label
  _atom_site_symmetry_multiplicity
  _atom_site_fract_x
  _atom_site_fract_y
  _atom_site_fract_z
  _atom_site_occupancy
  Sr  Sr1       1.0  0.2500000017755293  0.25000003517351593  0.24999995977435907  1.0000
  Sr  Sr2       1.0  0.7499999727262843  0.7499999827219541  0.7500000288336804  1.0000
  In  In1       1.0  1.4840058644415585e-08  0.9999999601734292  8.023962823656318e-08  1.0000
  Br  Br1       1.0  0.25649146917230187  0.2564914598813303  0.7435085386608051  1.0000
  Br  Br2       1.0  0.7435085489629776  0.7435085397602952  0.2564914562264079  1.0000
  Br  Br3       1.0  0.7435085411589519  0.2564914666981094  0.25649147151352725  1.0000
  Br  Br4       1.0  0.25649148674315997  0.7435085130302309  0.7435085162525651  1.0000
  Br  Br5       1.0  0.2564914595083472  0.7435085588633381  0.2564914441714857  1.0000
  Br  Br6       1.0  0.7435085056848758  0.2564914822642983  0.7435085049565072  1.0000
