data_image0
_chemical_formula_structural       Sr2MnCl6
_chemical_formula_sum              "Sr2 Mn1 Cl6"
_cell_length_a       6.792005545712283
_cell_length_b       6.792005347973664
_cell_length_c       6.792005506433716
_cell_angle_alpha    59.99999991852454
_cell_angle_beta     60.00000076422072
_cell_angle_gamma    60.00000070929595

_space_group_name_H-M_alt    "P 1"
_space_group_IT_number       1

loop_
  _space_group_symop_operation_xyz
  'x, y, z'

loop_
  _atom_site_type_symbol
  _atom_site_label
  _atom_site_symmetry_multiplicity
  _atom_site_fract_x
  _atom_site_fract_y
  _atom_site_fract_z
  _atom_site_occupancy
  Sr  Sr1       1.0  0.2500000456662319  0.25000007372615124  0.2499999009919164  1.0000
  Sr  Sr2       1.0  0.7499999891825703  0.7499998893868165  0.7500000752883549  1.0000
  Mn  Mn1       1.0  1.3956340210691236e-07  0.9999999026263684  0.9999997992821745  1.0000
  Cl  Cl1       1.0  0.24750127379700898  0.2475013050272001  0.7524987090588232  1.0000
  Cl  Cl2       1.0  0.7524986851312234  0.7524986869372132  0.24750129370064838  1.0000
  Cl  Cl3       1.0  0.7524985339948157  0.24750147581505955  0.24750140040018453  1.0000
  Cl  Cl4       1.0  0.24750121837705188  0.7524987685995104  0.7524987796478003  1.0000
  Cl  Cl5       1.0  0.2475013687211983  0.7524985944355861  0.24750132111232642  1.0000
  Cl  Cl6       1.0  0.7524987439722107  0.247501298351982  0.7524987103011084  1.0000
