data_image0
_chemical_formula_structural       Sr2MnI6
_chemical_formula_sum              "Sr2 Mn1 I6"
_cell_length_a       7.852048455638843
_cell_length_b       7.8520485237851645
_cell_length_c       7.8520485795973745
_cell_angle_alpha    60.000000029115085
_cell_angle_beta     59.99999993709801
_cell_angle_gamma    59.99999890349866

_space_group_name_H-M_alt    "P 1"
_space_group_IT_number       1

loop_
  _space_group_symop_operation_xyz
  'x, y, z'

loop_
  _atom_site_type_symbol
  _atom_site_label
  _atom_site_symmetry_multiplicity
  _atom_site_fract_x
  _atom_site_fract_y
  _atom_site_fract_z
  _atom_site_occupancy
  Sr  Sr1       1.0  0.24999998061626894  0.24999998804218979  0.25000003616678995  1.0000
  Sr  Sr2       1.0  0.7500000106827864  0.7500000046807839  0.7500000028641532  1.0000
  Mn  Mn1       1.0  0.9999998673349554  9.358665292026355e-08  2.2086301584250045e-08  1.0000
  I   I1        1.0  0.25091523560888584  0.25091528014445447  0.7490847460938034  1.0000
  I   I2        1.0  0.7490848192356856  0.7490847734098413  0.25091519381568406  1.0000
  I   I3        1.0  0.7490848068545378  0.2509151729788563  0.25091520305255294  1.0000
  I   I4        1.0  0.2509152268694163  0.7490847542334608  0.7490847214395224  1.0000
  I   I5        1.0  0.2509152490895928  0.749084738008046  0.25091528019338144  1.0000
  I   I6        1.0  0.749084800201527  0.25091519544338126  0.749084798957446  1.0000
