data_image0
_chemical_formula_structural       Sr2MgCl6
_chemical_formula_sum              "Sr2 Mg1 Cl6"
_cell_length_a       6.788211838348462
_cell_length_b       6.78821230277242
_cell_length_c       6.788211963031862
_cell_angle_alpha    59.99999979080046
_cell_angle_beta     60.00000041554815
_cell_angle_gamma    60.00000170253629

_space_group_name_H-M_alt    "P 1"
_space_group_IT_number       1

loop_
  _space_group_symop_operation_xyz
  'x, y, z'

loop_
  _atom_site_type_symbol
  _atom_site_label
  _atom_site_symmetry_multiplicity
  _atom_site_fract_x
  _atom_site_fract_y
  _atom_site_fract_z
  _atom_site_occupancy
  Sr  Sr1       1.0  0.2499999387962512  0.24999999733977465  0.2500000315916201  1.0000
  Sr  Sr2       1.0  0.7499999733824573  0.749999995627773  0.7499999319778343  1.0000
  Mg  Mg1       1.0  6.925039372165801e-09  0.9999999639155405  1.457971063275353e-08  1.0000
  Cl  Cl1       1.0  0.25124430754672517  0.2512442130954702  0.7487557170101747  1.0000
  Cl  Cl2       1.0  0.7487557024489964  0.7487558538452191  0.2512442048584615  1.0000
  Cl  Cl3       1.0  0.7487558388217198  0.2512442353647891  0.25124419968630574  1.0000
  Cl  Cl4       1.0  0.25124421290987575  0.7487558135336673  0.7487558532302825  1.0000
  Cl  Cl5       1.0  0.25124419107492085  0.7487557411759476  0.2512442214939498  1.0000
  Cl  Cl6       1.0  0.7487558202976136  0.2512441940564629  0.7487558274123843  1.0000
