data_image0
_chemical_formula_structural       Sr2MnF6
_chemical_formula_sum              "Sr2 Mn1 F6"
_cell_length_a       5.691326425119204
_cell_length_b       5.691326401006067
_cell_length_c       5.691326414604031
_cell_angle_alpha    60.000000721007076
_cell_angle_beta     60.00000070222842
_cell_angle_gamma    60.00000057245408

_space_group_name_H-M_alt    "P 1"
_space_group_IT_number       1

loop_
  _space_group_symop_operation_xyz
  'x, y, z'

loop_
  _atom_site_type_symbol
  _atom_site_label
  _atom_site_symmetry_multiplicity
  _atom_site_fract_x
  _atom_site_fract_y
  _atom_site_fract_z
  _atom_site_occupancy
  Sr  Sr1       1.0  0.24999996283199533  0.24999996819386164  0.2500000218704654  1.0000
  Sr  Sr2       1.0  0.7500000109845743  0.750000042306372  0.7500000198435731  1.0000
  Mn  Mn1       1.0  0.9999999943845393  1.0759748878129217e-08  0.999999992156677  1.0000
  F   F1        1.0  0.25297956435444363  0.25297950094022514  0.7470204411860862  1.0000
  F   F2        1.0  0.7470205282024495  0.747020524623657  0.2529794949706545  1.0000
  F   F3        1.0  0.7470204337092233  0.2529795152859893  0.2529794800471945  1.0000
  F   F4        1.0  0.2529795486131888  0.7470204392635494  0.7470205098357049  1.0000
  F   F5        1.0  0.25297948933837633  0.7470204553472639  0.2529795091512788  1.0000
  F   F6        1.0  0.7470204630009268  0.25297954654517024  0.7470205071929202  1.0000
