data_image0
_chemical_formula_structural       Sr2MgI6
_chemical_formula_sum              "Sr2 Mg1 I6"
_cell_length_a       7.9158588285443905
_cell_length_b       7.91585873378481
_cell_length_c       7.915858788202345
_cell_angle_alpha    59.999999926733054
_cell_angle_beta     60.000000569786636
_cell_angle_gamma    59.9999996204097

_space_group_name_H-M_alt    "P 1"
_space_group_IT_number       1

loop_
  _space_group_symop_operation_xyz
  'x, y, z'

loop_
  _atom_site_type_symbol
  _atom_site_label
  _atom_site_symmetry_multiplicity
  _atom_site_fract_x
  _atom_site_fract_y
  _atom_site_fract_z
  _atom_site_occupancy
  Sr  Sr1       1.0  0.2500000192679533  0.25000000076226575  0.24999993745799387  1.0000
  Sr  Sr2       1.0  0.7499999780016222  0.7500000053812057  0.7500000440107779  1.0000
  Mg  Mg1       1.0  1.0299511574703776e-08  0.9999999953583878  0.9999999542192988  1.0000
  I   I1        1.0  0.25501235075690054  0.2550124004935974  0.7449876547277249  1.0000
  I   I2        1.0  0.7449876691594551  0.7449876164803024  0.2550123327416051  1.0000
  I   I3        1.0  0.74498760839165  0.2550124006514706  0.2550123498094307  1.0000
  I   I4        1.0  0.2550123319727436  0.74498763179447  0.7449876949655959  1.0000
  I   I5        1.0  0.2550123887323343  0.7449876131146757  0.25501234238632764  1.0000
  I   I6        1.0  0.744987642633853  0.25501233887665375  0.7449876870088137  1.0000
