data_image0
_chemical_formula_structural       Sr2MnBr6
_chemical_formula_sum              "Sr2 Mn1 Br6"
_cell_length_a       7.173790436301996
_cell_length_b       7.1737907128882545
_cell_length_c       7.173790585025991
_cell_angle_alpha    59.99999914882003
_cell_angle_beta     60.00000062352675
_cell_angle_gamma    59.9999984475332

_space_group_name_H-M_alt    "P 1"
_space_group_IT_number       1

loop_
  _space_group_symop_operation_xyz
  'x, y, z'

loop_
  _atom_site_type_symbol
  _atom_site_label
  _atom_site_symmetry_multiplicity
  _atom_site_fract_x
  _atom_site_fract_y
  _atom_site_fract_z
  _atom_site_occupancy
  Sr  Sr1       1.0  0.24999992503480217  0.2500000457336239  0.24999999450163057  1.0000
  Sr  Sr2       1.0  0.7500000826739532  0.7499999050149652  0.7499999848440463  1.0000
  Mn  Mn1       1.0  0.9999999841465588  7.170446972099909e-08  0.9999999455891843  1.0000
  Br  Br1       1.0  0.2488277332558173  0.24882779851110617  0.7511722220170239  1.0000
  Br  Br2       1.0  0.7511721942318473  0.7511721949187156  0.24882779979595487  1.0000
  Br  Br3       1.0  0.7511722084288135  0.24882781540993018  0.24882777866305983  1.0000
  Br  Br4       1.0  0.24882779581518638  0.751172232651866  0.7511721913953965  1.0000
  Br  Br5       1.0  0.24882782835267417  0.7511721972463317  0.248827817524946  1.0000
  Br  Br6       1.0  0.7511722509432893  0.24882774155150825  0.7511722658229684  1.0000
