data_image0
_chemical_formula_structural       Sr2MgBr6
_chemical_formula_sum              "Sr2 Mg1 Br6"
_cell_length_a       7.222371914678279
_cell_length_b       7.22237198999897
_cell_length_c       7.2223720571717696
_cell_angle_alpha    60.00000014376943
_cell_angle_beta     60.000000089242555
_cell_angle_gamma    60.00000080066703

_space_group_name_H-M_alt    "P 1"
_space_group_IT_number       1

loop_
  _space_group_symop_operation_xyz
  'x, y, z'

loop_
  _atom_site_type_symbol
  _atom_site_label
  _atom_site_symmetry_multiplicity
  _atom_site_fract_x
  _atom_site_fract_y
  _atom_site_fract_z
  _atom_site_occupancy
  Sr  Sr1       1.0  0.2500000642950225  0.2499999728153833  0.2500000115869562  1.0000
  Sr  Sr2       1.0  0.7499999816655333  0.750000067673505  0.7499999120678382  1.0000
  Mg  Mg1       1.0  0.9999999526987484  0.9999999932169382  1.0180983602122413e-07  1.0000
  Br  Br1       1.0  0.2539371183091273  0.25393709191865343  0.746062883721972  1.0000
  Br  Br2       1.0  0.746062945528989  0.7460629333083462  0.25393709262386627  1.0000
  Br  Br3       1.0  0.7460629208524876  0.2539370367136973  0.2539371257256049  1.0000
  Br  Br4       1.0  0.2539371011928809  0.7460628884631424  0.7460628910807802  1.0000
  Br  Br5       1.0  0.25393700429123245  0.7460629331099567  0.25393709319022933  1.0000
  Br  Br6       1.0  0.7460629035283882  0.25393708533398  0.7460628897887076  1.0000
