data_image0
_chemical_formula_structural       Sr2MgF6
_chemical_formula_sum              "Sr2 Mg1 F6"
_cell_length_a       5.536511894170734
_cell_length_b       5.53651180147106
_cell_length_c       5.536511904594171
_cell_angle_alpha    60.00000068762641
_cell_angle_beta     59.99999986512894
_cell_angle_gamma    60.00000019697212

_space_group_name_H-M_alt    "P 1"
_space_group_IT_number       1

loop_
  _space_group_symop_operation_xyz
  'x, y, z'

loop_
  _atom_site_type_symbol
  _atom_site_label
  _atom_site_symmetry_multiplicity
  _atom_site_fract_x
  _atom_site_fract_y
  _atom_site_fract_z
  _atom_site_occupancy
  Sr  Sr1       1.0  0.2499999748020684  0.24999996674107305  0.2500000943563839  1.0000
  Sr  Sr2       1.0  0.7500000352362591  0.7500000307385115  0.7499999980330654  1.0000
  Mg  Mg1       1.0  3.7183148399467895e-08  0.9999999823030113  1.91559817692316e-08  1.0000
  F   F1        1.0  0.24592718469696997  0.24592714494396786  0.7540728420565682  1.0000
  F   F2        1.0  0.7540727903703329  0.7540728635962339  0.2459271936528129  1.0000
  F   F3        1.0  0.7540727979984025  0.2459271508464853  0.24592719277078312  1.0000
  F   F4        1.0  0.24592716859994707  0.7540728643300856  0.7540727354834081  1.0000
  F   F5        1.0  0.24592716084047606  0.7540728699531214  0.24592713721398304  1.0000
  F   F6        1.0  0.7540728387698018  0.2459271275264605  0.7540727888013126  1.0000
