data_image0
_chemical_formula_structural       Sr2NbI6
_chemical_formula_sum              "Sr2 Nb1 I6"
_cell_length_a       8.078645875302907
_cell_length_b       8.078645777536494
_cell_length_c       8.078645572057082
_cell_angle_alpha    60.00000149943095
_cell_angle_beta     60.000000886052085
_cell_angle_gamma    59.99999809949116

_space_group_name_H-M_alt    "P 1"
_space_group_IT_number       1

loop_
  _space_group_symop_operation_xyz
  'x, y, z'

loop_
  _atom_site_type_symbol
  _atom_site_label
  _atom_site_symmetry_multiplicity
  _atom_site_fract_x
  _atom_site_fract_y
  _atom_site_fract_z
  _atom_site_occupancy
  Sr  Sr1       1.0  0.250000104131414  0.250000054424523  0.24999993416328928  1.0000
  Sr  Sr2       1.0  0.7499999097905977  0.7499999389015193  0.750000040470008  1.0000
  Nb  Nb1       1.0  0.9999999718321515  3.0320563696422706e-09  8.807560280511393e-08  1.0000
  I   I1        1.0  0.2506513682515574  0.25065140180349893  0.7493486214798304  1.0000
  I   I2        1.0  0.7493486255583329  0.7493486218430929  0.2506513752815404  1.0000
  I   I3        1.0  0.7493486560691983  0.2506513197331856  0.25065137930005466  1.0000
  I   I4        1.0  0.25065140203309266  0.7493486053716204  0.7493485788836017  1.0000
  I   I5        1.0  0.2506513496689143  0.7493486692024474  0.25065137520226366  1.0000
  I   I6        1.0  0.7493486130996029  0.25065138324866665  0.7493486053478955  1.0000
