data_image0
_chemical_formula_structural       Sr2NiI6
_chemical_formula_sum              "Sr2 Ni1 I6"
_cell_length_a       7.703852389117065
_cell_length_b       7.70385237500008
_cell_length_c       7.703852330052605
_cell_angle_alpha    60.00000141596307
_cell_angle_beta     60.00000156678504
_cell_angle_gamma    59.999999019095696

_space_group_name_H-M_alt    "P 1"
_space_group_IT_number       1

loop_
  _space_group_symop_operation_xyz
  'x, y, z'

loop_
  _atom_site_type_symbol
  _atom_site_label
  _atom_site_symmetry_multiplicity
  _atom_site_fract_x
  _atom_site_fract_y
  _atom_site_fract_z
  _atom_site_occupancy
  Sr  Sr1       1.0  0.24999980446423103  0.2500001196094276  0.2500000524868415  1.0000
  Sr  Sr2       1.0  0.7500001929591886  0.7499999311768097  0.7499999321770455  1.0000
  Ni  Ni1       1.0  3.982256295289178e-09  0.9999999745634821  1.2025182478518504e-08  1.0000
  I   I1        1.0  0.2484703095076063  0.24847034806581353  0.7515296681805282  1.0000
  I   I2        1.0  0.7515296926254398  0.7515296391291292  0.2484703316456216  1.0000
  I   I3        1.0  0.7515296750707454  0.24847033010970898  0.24847028968894452  1.0000
  I   I4        1.0  0.24847032212671086  0.7515296539056691  0.7515297064064712  1.0000
  I   I5        1.0  0.24847031325325444  0.7515296605560761  0.24847032580039002  1.0000
  I   I6        1.0  0.7515296816426495  0.24847033935712565  0.7515296868618239  1.0000
