data_image0
_chemical_formula_structural       Sr2NbCl6
_chemical_formula_sum              "Sr2 Nb1 Cl6"
_cell_length_a       6.958807928762357
_cell_length_b       6.958807620806762
_cell_length_c       6.958807633297799
_cell_angle_alpha    59.99999976587737
_cell_angle_beta     60.00000278595086
_cell_angle_gamma    60.000002700268666

_space_group_name_H-M_alt    "P 1"
_space_group_IT_number       1

loop_
  _space_group_symop_operation_xyz
  'x, y, z'

loop_
  _atom_site_type_symbol
  _atom_site_label
  _atom_site_symmetry_multiplicity
  _atom_site_fract_x
  _atom_site_fract_y
  _atom_site_fract_z
  _atom_site_occupancy
  Sr  Sr1       1.0  0.24999997229545246  0.25000008656376366  0.24999996614666678  1.0000
  Sr  Sr2       1.0  0.7500000600437385  0.7500001488117735  0.7499998435013198  1.0000
  Nb  Nb1       1.0  0.9999999501365163  0.9999999753601037  1.2059930172333118e-07  1.0000
  Cl  Cl1       1.0  0.2538775511304098  0.2538775012951582  0.7461224253325531  1.0000
  Cl  Cl2       1.0  0.7461224646040685  0.7461224155217492  0.2538775317787157  1.0000
  Cl  Cl3       1.0  0.7461224282312614  0.2538776135618041  0.25387755962033265  1.0000
  Cl  Cl4       1.0  0.25387751122258123  0.7461223877347359  0.7461225543385501  1.0000
  Cl  Cl5       1.0  0.25387757200973043  0.7461223789594295  0.2538775906209835  1.0000
  Cl  Cl6       1.0  0.7461224515526929  0.25387750441762175  0.7461224252811305  1.0000
