data_image0
_chemical_formula_structural       Sr2NiBr6
_chemical_formula_sum              "Sr2 Ni1 Br6"
_cell_length_a       7.066620175078534
_cell_length_b       7.0666203558965845
_cell_length_c       7.066620421895933
_cell_angle_alpha    59.999998282104066
_cell_angle_beta     59.99999922675579
_cell_angle_gamma    59.99999966261926

_space_group_name_H-M_alt    "P 1"
_space_group_IT_number       1

loop_
  _space_group_symop_operation_xyz
  'x, y, z'

loop_
  _atom_site_type_symbol
  _atom_site_label
  _atom_site_symmetry_multiplicity
  _atom_site_fract_x
  _atom_site_fract_y
  _atom_site_fract_z
  _atom_site_occupancy
  Sr  Sr1       1.0  0.24999996093601737  0.250000073568264  0.24999997076796548  1.0000
  Sr  Sr2       1.0  0.7499999896680686  0.7499999295371178  0.7500000143634538  1.0000
  Ni  Ni1       1.0  0.9999999991249264  1.7331409276378264e-08  0.9999999861114175  1.0000
  Br  Br1       1.0  0.2489846058012401  0.24898458466403808  0.7510154393596195  1.0000
  Br  Br2       1.0  0.7510154562136315  0.7510154028430742  0.24898457994155093  1.0000
  Br  Br3       1.0  0.7510154545447653  0.24898452446957642  0.2489846241551512  1.0000
  Br  Br4       1.0  0.24898458307591734  0.7510154283747186  0.7510153652401713  1.0000
  Br  Br5       1.0  0.2489845147818123  0.7510154509832865  0.24898463247484595  1.0000
  Br  Br6       1.0  0.7510154335935334  0.24898458331863096  0.7510153735502652  1.0000
