data_image0
_chemical_formula_structural       Sr2NbF6
_chemical_formula_sum              "Sr2 Nb1 F6"
_cell_length_a       5.932422485983917
_cell_length_b       5.932421946274352
_cell_length_c       5.932421629376048
_cell_angle_alpha    59.99999984238874
_cell_angle_beta     60.00000160098966
_cell_angle_gamma    59.999998748000856

_space_group_name_H-M_alt    "P 1"
_space_group_IT_number       1

loop_
  _space_group_symop_operation_xyz
  'x, y, z'

loop_
  _atom_site_type_symbol
  _atom_site_label
  _atom_site_symmetry_multiplicity
  _atom_site_fract_x
  _atom_site_fract_y
  _atom_site_fract_z
  _atom_site_occupancy
  Sr  Sr1       1.0  0.24999996502189398  0.2500000239997215  0.2500000018053765  1.0000
  Sr  Sr2       1.0  0.7500000720148357  0.7499999790969393  0.7499999684496191  1.0000
  Nb  Nb1       1.0  5.5130721449693894e-08  0.9999998988397987  7.358430827439743e-08  1.0000
  F   F1        1.0  0.2526934227598086  0.2526935869878193  0.7473065074048353  1.0000
  F   F2        1.0  0.7473065353776117  0.7473064367537797  0.25269355603213384  1.0000
  F   F3        1.0  0.7473064302331862  0.2526935443600719  0.25269358217044957  1.0000
  F   F4        1.0  0.25269362939490686  0.7473063968017724  0.7473063656149663  1.0000
  F   F5        1.0  0.25269356810405913  0.7473064821736036  0.2526935624892571  1.0000
  F   F6        1.0  0.7473063627226608  0.2526936468571849  0.7473063759902007  1.0000
