data_image0
_chemical_formula_structural       Sr2NbBr6
_chemical_formula_sum              "Sr2 Nb1 Br6"
_cell_length_a       7.369052060195812
_cell_length_b       7.369052146119604
_cell_length_c       7.3690524212779165
_cell_angle_alpha    59.99999887036267
_cell_angle_beta     59.999997794917164
_cell_angle_gamma    60.00000040558052

_space_group_name_H-M_alt    "P 1"
_space_group_IT_number       1

loop_
  _space_group_symop_operation_xyz
  'x, y, z'

loop_
  _atom_site_type_symbol
  _atom_site_label
  _atom_site_symmetry_multiplicity
  _atom_site_fract_x
  _atom_site_fract_y
  _atom_site_fract_z
  _atom_site_occupancy
  Sr  Sr1       1.0  0.25000003386970115  0.24999997434748475  0.24999999218633032  1.0000
  Sr  Sr2       1.0  0.7500000092046261  0.7500000028190009  0.7499999611605315  1.0000
  Nb  Nb1       1.0  0.9999999841104785  0.9999999019413276  3.9487371514724886e-07  1.0000
  Br  Br1       1.0  0.253855817671149  0.2538558292803762  0.7461442392128073  1.0000
  Br  Br2       1.0  0.7461442548250194  0.7461442758609891  0.25385577385240493  1.0000
  Br  Br3       1.0  0.7461442555844594  0.2538557151678936  0.2538557981946751  1.0000
  Br  Br4       1.0  0.2538559681058207  0.7461440210069388  0.7461440292819792  1.0000
  Br  Br5       1.0  0.2538556981155527  0.7461442802669629  0.2538557657341101  1.0000
  Br  Br6       1.0  0.7461439811497518  0.2538560126816858  0.7461440406408344  1.0000
