data_image0
_chemical_formula_structural       Sr2NiF6
_chemical_formula_sum              "Sr2 Ni1 F6"
_cell_length_a       5.552342844187112
_cell_length_b       5.552342925909712
_cell_length_c       5.552342912691923
_cell_angle_alpha    60.00000088111812
_cell_angle_beta     60.0000007197525
_cell_angle_gamma    59.99999984387592

_space_group_name_H-M_alt    "P 1"
_space_group_IT_number       1

loop_
  _space_group_symop_operation_xyz
  'x, y, z'

loop_
  _atom_site_type_symbol
  _atom_site_label
  _atom_site_symmetry_multiplicity
  _atom_site_fract_x
  _atom_site_fract_y
  _atom_site_fract_z
  _atom_site_occupancy
  Sr  Sr1       1.0  0.25000001818064804  0.24999999924322985  0.24999997398065232  1.0000
  Sr  Sr2       1.0  0.7500000065835297  0.7500000043471395  0.7500000668843023  1.0000
  Ni  Ni1       1.0  0.9999999522722463  3.088142942147817e-08  1.0387836139141773e-07  1.0000
  F   F1        1.0  0.24803090519622253  0.2480310723903317  0.7519689999318221  1.0000
  F   F2        1.0  0.7519690598235405  0.7519690106094257  0.24803099507981624  1.0000
  F   F3        1.0  0.7519691189527373  0.24803088481067165  0.24803092474683563  1.0000
  F   F4        1.0  0.24803099215180222  0.7519689533434722  0.7519689593525274  1.0000
  F   F5        1.0  0.24803091072846897  0.7519690369343527  0.24803101639487218  1.0000
  F   F6        1.0  0.7519690590813844  0.2480310129781596  0.751968935132015  1.0000
