data_image0
_chemical_formula_structural       Sr2NiCl6
_chemical_formula_sum              "Sr2 Ni1 Cl6"
_cell_length_a       6.68741116117569
_cell_length_b       6.68741118859268
_cell_length_c       6.687411256399753
_cell_angle_alpha    59.99999829440017
_cell_angle_beta     59.99999975686394
_cell_angle_gamma    59.999998225463074

_space_group_name_H-M_alt    "P 1"
_space_group_IT_number       1

loop_
  _space_group_symop_operation_xyz
  'x, y, z'

loop_
  _atom_site_type_symbol
  _atom_site_label
  _atom_site_symmetry_multiplicity
  _atom_site_fract_x
  _atom_site_fract_y
  _atom_site_fract_z
  _atom_site_occupancy
  Sr  Sr1       1.0  0.24999999654136407  0.2500000106299152  0.25000001097414326  1.0000
  Sr  Sr2       1.0  0.7499999845159423  0.7499999073532846  0.7500000349401647  1.0000
  Ni  Ni1       1.0  4.5664749494956615e-09  1.8314185640290644e-07  0.99999989268771  1.0000
  Cl  Cl1       1.0  0.24735252735865987  0.24735262466136596  0.7526474388418054  1.0000
  Cl  Cl2       1.0  0.7526473925317337  0.7526473317816236  0.24735267076320697  1.0000
  Cl  Cl3       1.0  0.7526473781080136  0.2473526142100127  0.24735252037076333  1.0000
  Cl  Cl4       1.0  0.24735263224890439  0.7526473971755344  0.7526473939112578  1.0000
  Cl  Cl5       1.0  0.2473526750702863  0.7526473688309419  0.24735254679499025  1.0000
  Cl  Cl6       1.0  0.752647408157271  0.2473525638036043  0.7526474960363562  1.0000
