data_image0
_chemical_formula_structural       Sr2PtBr6
_chemical_formula_sum              "Sr2 Pt1 Br6"
_cell_length_a       7.198683016068806
_cell_length_b       7.198683062161862
_cell_length_c       7.19868302228895
_cell_angle_alpha    59.99999978926885
_cell_angle_beta     59.99999997190332
_cell_angle_gamma    60.00000086982898

_space_group_name_H-M_alt    "P 1"
_space_group_IT_number       1

loop_
  _space_group_symop_operation_xyz
  'x, y, z'

loop_
  _atom_site_type_symbol
  _atom_site_label
  _atom_site_symmetry_multiplicity
  _atom_site_fract_x
  _atom_site_fract_y
  _atom_site_fract_z
  _atom_site_occupancy
  Sr  Sr1       1.0  0.2500000364721536  0.25000000884668894  0.24999996115760945  1.0000
  Sr  Sr2       1.0  0.7499999706263385  0.7500000146306451  0.7500000004968899  1.0000
  Pt  Pt1       1.0  0.9999999798757562  4.593633548408829e-08  0.9999997717767919  1.0000
  Br  Br1       1.0  0.24675411836374553  0.24675411964900792  0.7532458827201808  1.0000
  Br  Br2       1.0  0.75324585414358  0.7532458391771879  0.24675418551033312  1.0000
  Br  Br3       1.0  0.7532458202176082  0.24675417513759892  0.2467541680617316  1.0000
  Br  Br4       1.0  0.24675406161805716  0.7532459402124029  0.7532459353107152  1.0000
  Br  Br5       1.0  0.2467542178658546  0.7532457842501722  0.2467541992891846  1.0000
  Br  Br6       1.0  0.7532459403881616  0.24675407930066418  0.753245900108528  1.0000
