data_image0
_chemical_formula_structural       Sr2PdF6
_chemical_formula_sum              "Sr2 Pd1 F6"
_cell_length_a       5.793681593785168
_cell_length_b       5.793681611796678
_cell_length_c       5.793681617178729
_cell_angle_alpha    59.99999964842947
_cell_angle_beta     59.99999912524471
_cell_angle_gamma    59.99999948286663

_space_group_name_H-M_alt    "P 1"
_space_group_IT_number       1

loop_
  _space_group_symop_operation_xyz
  'x, y, z'

loop_
  _atom_site_type_symbol
  _atom_site_label
  _atom_site_symmetry_multiplicity
  _atom_site_fract_x
  _atom_site_fract_y
  _atom_site_fract_z
  _atom_site_occupancy
  Sr  Sr1       1.0  0.24999997914454233  0.2499999961972763  0.25000003990831104  1.0000
  Sr  Sr2       1.0  0.749999993238585  0.7499999885918286  0.7500000055215433  1.0000
  Pd  Pd1       1.0  4.448916610347255e-09  1.0569659793795841e-08  1.6654966749740286e-08  1.0000
  F   F1        1.0  0.25720357034266883  0.25720355293190394  0.7427964281551938  1.0000
  F   F2        1.0  0.7427964428268393  0.7427964529965206  0.2572035207231181  1.0000
  F   F3        1.0  0.7427963788016348  0.2572036363327041  0.25720355178491355  1.0000
  F   F4        1.0  0.2572035609675587  0.7427963865071765  0.7427964598581921  1.0000
  F   F5        1.0  0.2572036012592345  0.7427964080526346  0.257203580403017  1.0000
  F   F6        1.0  0.7427964422893775  0.25720357250860626  0.7427964022157171  1.0000
