data_image0
_chemical_formula_structural       Sr2PbBr6
_chemical_formula_sum              "Sr2 Pb1 Br6"
_cell_length_a       7.560432653065201
_cell_length_b       7.5604326356335125
_cell_length_c       7.5604326879435835
_cell_angle_alpha    59.999999520842756
_cell_angle_beta     60.000000722127304
_cell_angle_gamma    59.99999935907538

_space_group_name_H-M_alt    "P 1"
_space_group_IT_number       1

loop_
  _space_group_symop_operation_xyz
  'x, y, z'

loop_
  _atom_site_type_symbol
  _atom_site_label
  _atom_site_symmetry_multiplicity
  _atom_site_fract_x
  _atom_site_fract_y
  _atom_site_fract_z
  _atom_site_occupancy
  Sr  Sr1       1.0  0.24999993725219363  0.24999997348151118  0.24999999105793239  1.0000
  Sr  Sr2       1.0  0.7500000128167151  0.750000082438552  0.7500000098881993  1.0000
  Pb  Pb1       1.0  2.281676741096718e-08  4.859820702498424e-09  0.9999999530948156  1.0000
  Br  Br1       1.0  0.26623441587034735  0.26623442466894315  0.7337655891948456  1.0000
  Br  Br2       1.0  0.733765504425636  0.733765537294588  0.2662344696479878  1.0000
  Br  Br3       1.0  0.7337656114649498  0.2662344332616028  0.2662344105025445  1.0000
  Br  Br4       1.0  0.26623435403040185  0.7337656680167861  0.733765560051203  1.0000
  Br  Br5       1.0  0.26623447980711995  0.7337655898916529  0.26623438345994205  1.0000
  Br  Br6       1.0  0.7337656613615913  0.2662342959346871  0.7337656321139882  1.0000
