data_image0
_chemical_formula_structural       Sr2PdBr6
_chemical_formula_sum              "Sr2 Pd1 Br6"
_cell_length_a       7.150286357776494
_cell_length_b       7.150286297750679
_cell_length_c       7.150286347204135
_cell_angle_alpha    59.99999935863156
_cell_angle_beta     59.99999901163109
_cell_angle_gamma    59.99999936254893

_space_group_name_H-M_alt    "P 1"
_space_group_IT_number       1

loop_
  _space_group_symop_operation_xyz
  'x, y, z'

loop_
  _atom_site_type_symbol
  _atom_site_label
  _atom_site_symmetry_multiplicity
  _atom_site_fract_x
  _atom_site_fract_y
  _atom_site_fract_z
  _atom_site_occupancy
  Sr  Sr1       1.0  0.25000001298592844  0.2499999810348419  0.25000002072470257  1.0000
  Sr  Sr2       1.0  0.7500000078660163  0.7499999927775041  0.7500000207169594  1.0000
  Pd  Pd1       1.0  0.9999999885809251  3.425722637369465e-08  0.9999999326391087  1.0000
  Br  Br1       1.0  0.24898928669619533  0.24898928285640534  0.7510107072922798  1.0000
  Br  Br2       1.0  0.7510107002260192  0.7510107200745829  0.24898927781601987  1.0000
  Br  Br3       1.0  0.7510106701881091  0.24898933093160167  0.24898931711223515  1.0000
  Br  Br4       1.0  0.24898927443598778  0.7510107165337808  0.7510106990444704  1.0000
  Br  Br5       1.0  0.24898933544276203  0.751010665528212  0.24898931955673434  1.0000
  Br  Br6       1.0  0.7510107247545712  0.2489892774526299  0.7510107036425314  1.0000
