data_image0
_chemical_formula_structural       Sr2PdCl6
_chemical_formula_sum              "Sr2 Pd1 Cl6"
_cell_length_a       6.792519245212604
_cell_length_b       6.792519263609401
_cell_length_c       6.792519267892672
_cell_angle_alpha    59.99999974781355
_cell_angle_beta     59.99999952402083
_cell_angle_gamma    60.00000024197239

_space_group_name_H-M_alt    "P 1"
_space_group_IT_number       1

loop_
  _space_group_symop_operation_xyz
  'x, y, z'

loop_
  _atom_site_type_symbol
  _atom_site_label
  _atom_site_symmetry_multiplicity
  _atom_site_fract_x
  _atom_site_fract_y
  _atom_site_fract_z
  _atom_site_occupancy
  Sr  Sr1       1.0  0.25000001482566775  0.2500000152873038  0.24999998323485084  1.0000
  Sr  Sr2       1.0  0.7499999587071633  0.7499999971787785  0.7500000213476631  1.0000
  Pd  Pd1       1.0  0.9999999504125504  0.9999998070705484  4.0539456082389934e-07  1.0000
  Cl  Cl1       1.0  0.24809362155420223  0.24809362826579817  0.7519063595590827  1.0000
  Cl  Cl2       1.0  0.7519064865139938  0.7519064905819447  0.24809352162050227  1.0000
  Cl  Cl3       1.0  0.7519064803440331  0.24809351548077677  0.24809355067188962  1.0000
  Cl  Cl4       1.0  0.24809365496192898  0.7519063635574618  0.7519063543499266  1.0000
  Cl  Cl5       1.0  0.24809351422205916  0.7519065210506328  0.24809346668177576  1.0000
  Cl  Cl6       1.0  0.7519063104154767  0.2480936627079523  0.7519063426761563  1.0000
