data_image0
_chemical_formula_structural       Sr2PtCl6
_chemical_formula_sum              "Sr2 Pt1 Cl6"
_cell_length_a       6.923005396613833
_cell_length_b       6.923005388168059
_cell_length_c       6.923005376166877
_cell_angle_alpha    60.00000024348301
_cell_angle_beta     60.00000015963808
_cell_angle_gamma    59.99999997040739

_space_group_name_H-M_alt    "P 1"
_space_group_IT_number       1

loop_
  _space_group_symop_operation_xyz
  'x, y, z'

loop_
  _atom_site_type_symbol
  _atom_site_label
  _atom_site_symmetry_multiplicity
  _atom_site_fract_x
  _atom_site_fract_y
  _atom_site_fract_z
  _atom_site_occupancy
  Sr  Sr1       1.0  0.24999999950581198  0.2500000022857889  0.25000000129420746  1.0000
  Sr  Sr2       1.0  0.7499999992083102  0.74999999978099  0.7500000041864547  1.0000
  Pt  Pt1       1.0  3.0308693609272885e-08  1.4152753509289197e-08  0.9999999503245484  1.0000
  Cl  Cl1       1.0  0.24575041800727845  0.24575042489812465  0.754249575228341  1.0000
  Cl  Cl2       1.0  0.7542495639438466  0.7542495524013353  0.24575043801734472  1.0000
  Cl  Cl3       1.0  0.7542495588634887  0.24575043766447174  0.24575043876603167  1.0000
  Cl  Cl4       1.0  0.24575042296910107  0.7542495750168725  0.7542495770704112  1.0000
  Cl  Cl5       1.0  0.2457504421088747  0.7542495616792354  0.24575043850217695  1.0000
  Cl  Cl6       1.0  0.7542495657368881  0.24575042800388405  0.7542495787157104  1.0000
