data_image0
_chemical_formula_structural       Sr2PbF6
_chemical_formula_sum              "Sr2 Pb1 F6"
_cell_length_a       6.022064996976814
_cell_length_b       6.022065161331363
_cell_length_c       6.022065312560558
_cell_angle_alpha    59.9999986882625
_cell_angle_beta     59.99999979004975
_cell_angle_gamma    60.00000167196892

_space_group_name_H-M_alt    "P 1"
_space_group_IT_number       1

loop_
  _space_group_symop_operation_xyz
  'x, y, z'

loop_
  _atom_site_type_symbol
  _atom_site_label
  _atom_site_symmetry_multiplicity
  _atom_site_fract_x
  _atom_site_fract_y
  _atom_site_fract_z
  _atom_site_occupancy
  Sr  Sr1       1.0  0.24999998115549973  0.24999996753498546  0.24999997012262332  1.0000
  Sr  Sr2       1.0  0.7500000710615642  0.7500000490358381  0.7500000124755188  1.0000
  Pb  Pb1       1.0  0.9999999758673908  0.9999999918649501  4.43633470706612e-08  1.0000
  F   F1        1.0  0.2649293167589569  0.26492928821764683  0.735070707476711  1.0000
  F   F2        1.0  0.7350707022234555  0.7350706612390219  0.26492931367191513  1.0000
  F   F3        1.0  0.7350706730156935  0.2649293051075505  0.2649293908244653  1.0000
  F   F4        1.0  0.26492931174170015  0.7350707297671323  0.7350705698559052  1.0000
  F   F5        1.0  0.26492935018155916  0.7350706618220715  0.26492934351390024  1.0000
  F   F6        1.0  0.7350705835789771  0.2649293994915192  0.7350706294454442  1.0000
