data_image0
_chemical_formula_structural       Sr2PbI6
_chemical_formula_sum              "Sr2 Pb1 I6"
_cell_length_a       8.18153231751527
_cell_length_b       8.181532169945722
_cell_length_c       8.181532198009263
_cell_angle_alpha    60.000000156680734
_cell_angle_beta     59.999999942561686
_cell_angle_gamma    59.99999942946614

_space_group_name_H-M_alt    "P 1"
_space_group_IT_number       1

loop_
  _space_group_symop_operation_xyz
  'x, y, z'

loop_
  _atom_site_type_symbol
  _atom_site_label
  _atom_site_symmetry_multiplicity
  _atom_site_fract_x
  _atom_site_fract_y
  _atom_site_fract_z
  _atom_site_occupancy
  Sr  Sr1       1.0  0.24999993559119602  0.2500000632540538  0.2500000014102636  1.0000
  Sr  Sr2       1.0  0.7500001054417706  0.7499999712056015  0.7499999543968581  1.0000
  Pb  Pb1       1.0  2.3479273223378198e-08  2.6945328797723354e-08  0.9999999246748362  1.0000
  I   I1        1.0  0.26657356239462615  0.2665735823261678  0.7334264297825377  1.0000
  I   I2        1.0  0.7334264268758337  0.7334263787823141  0.2665735946927491  1.0000
  I   I3        1.0  0.7334264437579504  0.26657360028736743  0.266573544901862  1.0000
  I   I4        1.0  0.26657351326423095  0.7334264236935494  0.7334264997070302  1.0000
  I   I5        1.0  0.266573553311785  0.7334263958617336  0.2665735939761072  1.0000
  I   I6        1.0  0.7334264360442874  0.26657356075586014  0.7334264583693811  1.0000
