data_image0
_chemical_formula_structural       Sr2PdI6
_chemical_formula_sum              "Sr2 Pd1 I6"
_cell_length_a       7.774097138840887
_cell_length_b       7.774097079710015
_cell_length_c       7.774097584577683
_cell_angle_alpha    59.99999712640394
_cell_angle_beta     59.999998064689684
_cell_angle_gamma    60.000003123569506

_space_group_name_H-M_alt    "P 1"
_space_group_IT_number       1

loop_
  _space_group_symop_operation_xyz
  'x, y, z'

loop_
  _atom_site_type_symbol
  _atom_site_label
  _atom_site_symmetry_multiplicity
  _atom_site_fract_x
  _atom_site_fract_y
  _atom_site_fract_z
  _atom_site_occupancy
  Sr  Sr1       1.0  0.249999956319499  0.2499999436669695  0.2499999363588308  1.0000
  Sr  Sr2       1.0  0.7500000253620823  0.7500001193023231  0.7499999880567457  1.0000
  Pd  Pd1       1.0  0.9999999499496894  0.9999999763687342  3.684078834637991e-08  1.0000
  I   I1        1.0  0.24931492300543556  0.2493149433191377  0.7506850776726389  1.0000
  I   I2        1.0  0.7506851154940799  0.7506850739630493  0.2493149157842537  1.0000
  I   I3        1.0  0.7506850506902003  0.2493148698340717  0.24931496719995896  1.0000
  I   I4        1.0  0.2493149644200841  0.7506851017610053  0.7506850543634896  1.0000
  I   I5        1.0  0.24931492080659337  0.7506850995085991  0.24931495457862085  1.0000
  I   I6        1.0  0.7506850998099229  0.24931486893564306  0.7506850658071292  1.0000
