data_image0
_chemical_formula_structural       Sr2PbCl6
_chemical_formula_sum              "Sr2 Pb1 Cl6"
_cell_length_a       7.173692790134642
_cell_length_b       7.173692745236184
_cell_length_c       7.173692753054961
_cell_angle_alpha    60.00000023758056
_cell_angle_beta     59.99999949045244
_cell_angle_gamma    59.999999767107745

_space_group_name_H-M_alt    "P 1"
_space_group_IT_number       1

loop_
  _space_group_symop_operation_xyz
  'x, y, z'

loop_
  _atom_site_type_symbol
  _atom_site_label
  _atom_site_symmetry_multiplicity
  _atom_site_fract_x
  _atom_site_fract_y
  _atom_site_fract_z
  _atom_site_occupancy
  Sr  Sr1       1.0  0.2499999922491166  0.25000010777899534  0.24999995945910342  1.0000
  Sr  Sr2       1.0  0.7500000500820568  0.7499999101770288  0.7499999744088776  1.0000
  Pb  Pb1       1.0  0.9999999929756291  3.073090554100774e-08  0.9999999295994804  1.0000
  Cl  Cl1       1.0  0.2643243835573245  0.2643244157942623  0.7356755600540206  1.0000
  Cl  Cl2       1.0  0.7356755974293046  0.7356755833817639  0.26432442642207155  1.0000
  Cl  Cl3       1.0  0.7356755592330559  0.2643244443158079  0.26432442715284266  1.0000
  Cl  Cl4       1.0  0.2643243774147434  0.7356756009565776  0.735675643477399  1.0000
  Cl  Cl5       1.0  0.26432441727677103  0.7356755248696233  0.26432441246366534  1.0000
  Cl  Cl6       1.0  0.7356756265357626  0.26432438723550344  0.7356756669858914  1.0000
