data_image0
_chemical_formula_structural       Sr2SnI6
_chemical_formula_sum              "Sr2 Sn1 I6"
_cell_length_a       8.11052556351623
_cell_length_b       8.110525665666524
_cell_length_c       8.110525414065025
_cell_angle_alpha    60.00000026464517
_cell_angle_beta     60.000001024944034
_cell_angle_gamma    59.999998573579056

_space_group_name_H-M_alt    "P 1"
_space_group_IT_number       1

loop_
  _space_group_symop_operation_xyz
  'x, y, z'

loop_
  _atom_site_type_symbol
  _atom_site_label
  _atom_site_symmetry_multiplicity
  _atom_site_fract_x
  _atom_site_fract_y
  _atom_site_fract_z
  _atom_site_occupancy
  Sr  Sr1       1.0  0.24999995258435895  0.2500000600478176  0.25000005011220655  1.0000
  Sr  Sr2       1.0  0.7500000585574635  0.7499999279620223  0.7499999824495219  1.0000
  Sn  Sn1       1.0  3.2384974103080317e-08  4.379198463169981e-08  0.9999998780698499  1.0000
  I   I1        1.0  0.26134927826529675  0.2613493031823357  0.7386507241198346  1.0000
  I   I2        1.0  0.7386506687530209  0.7386506380153847  0.26134932692073387  1.0000
  I   I3        1.0  0.7386507421784149  0.26134925133971393  0.2613492563854003  1.0000
  I   I4        1.0  0.2613492278905613  0.7386508000930012  0.7386507539046214  1.0000
  I   I5        1.0  0.26134928881249364  0.7386507052982333  0.2613492802018833  1.0000
  I   I6        1.0  0.7386507529896017  0.26134926761092153  0.738650747045983  1.0000
