data_image0
_chemical_formula_structural       Sr2ScBr6
_chemical_formula_sum              "Sr2 Sc1 Br6"
_cell_length_a       7.347232094422957
_cell_length_b       7.347232124711103
_cell_length_c       7.3472319736712155
_cell_angle_alpha    59.99999913028111
_cell_angle_beta     60.00000017024663
_cell_angle_gamma    59.9999984554973

_space_group_name_H-M_alt    "P 1"
_space_group_IT_number       1

loop_
  _space_group_symop_operation_xyz
  'x, y, z'

loop_
  _atom_site_type_symbol
  _atom_site_label
  _atom_site_symmetry_multiplicity
  _atom_site_fract_x
  _atom_site_fract_y
  _atom_site_fract_z
  _atom_site_occupancy
  Sr  Sr1       1.0  0.24999999577142343  0.24999999915365914  0.2500000129451292  1.0000
  Sr  Sr2       1.0  0.7500000025700851  0.7499999941270835  0.7499999852374392  1.0000
  Sc  Sc1       1.0  0.999999971694609  2.833810462126824e-08  1.0872097334995988e-08  1.0000
  Br  Br1       1.0  0.251087453698519  0.2510874358118224  0.7489125334020232  1.0000
  Br  Br2       1.0  0.7489125635976799  0.7489125524680779  0.2510874618867917  1.0000
  Br  Br3       1.0  0.7489125685469129  0.25108743302642006  0.2510874648929275  1.0000
  Br  Br4       1.0  0.2510874615128587  0.7489125452517957  0.7489125630413632  1.0000
  Br  Br5       1.0  0.25108744267084926  0.748912564963943  0.25108741660476175  1.0000
  Br  Br6       1.0  0.7489125390175425  0.2510874499871156  0.7489125518480709  1.0000
