data_image0
_chemical_formula_structural       Sr2ScI6
_chemical_formula_sum              "Sr2 Sc1 I6"
_cell_length_a       8.044352285292248
_cell_length_b       8.044352151095632
_cell_length_c       8.044352261892458
_cell_angle_alpha    59.99999926374234
_cell_angle_beta     59.999999978140565
_cell_angle_gamma    59.99999961605275

_space_group_name_H-M_alt    "P 1"
_space_group_IT_number       1

loop_
  _space_group_symop_operation_xyz
  'x, y, z'

loop_
  _atom_site_type_symbol
  _atom_site_label
  _atom_site_symmetry_multiplicity
  _atom_site_fract_x
  _atom_site_fract_y
  _atom_site_fract_z
  _atom_site_occupancy
  Sr  Sr1       1.0  0.24999997961248085  0.24999994588875354  0.25000004010774074  1.0000
  Sr  Sr2       1.0  0.7500000108221613  0.7500000523374057  0.7499999446744773  1.0000
  Sc  Sc1       1.0  1.072956587828874e-08  0.9999999893425674  0.9999999564551475  1.0000
  I   I1        1.0  0.252378308627944  0.2523782709158383  0.7476216955581592  1.0000
  I   I2        1.0  0.7476217726434955  0.7476217562376386  0.2523782318282175  1.0000
  I   I3        1.0  0.7476216768327577  0.25237828373128735  0.2523783297775971  1.0000
  I   I4        1.0  0.252378252371482  0.7476217388547178  0.7476217592143627  1.0000
  I   I5        1.0  0.2523782842053727  0.747621683877178  0.25237829681843094  1.0000
  I   I6        1.0  0.7476217012712532  0.25237827324174056  0.7476217532620936  1.0000
