data_image0
_chemical_formula_structural       Sr2SCl6
_chemical_formula_sum              "Sr2 S1 Cl6"
_cell_length_a       6.9979280634863175
_cell_length_b       6.997927681514111
_cell_length_c       6.997928038749622
_cell_angle_alpha    59.99999973433607
_cell_angle_beta     60.00000032557697
_cell_angle_gamma    60.00000057653274

_space_group_name_H-M_alt    "P 1"
_space_group_IT_number       1

loop_
  _space_group_symop_operation_xyz
  'x, y, z'

loop_
  _atom_site_type_symbol
  _atom_site_label
  _atom_site_symmetry_multiplicity
  _atom_site_fract_x
  _atom_site_fract_y
  _atom_site_fract_z
  _atom_site_occupancy
  Sr  Sr1       1.0  0.25000002740522137  0.2499999613045146  0.2500000159622597  1.0000
  Sr  Sr2       1.0  0.7499999361408956  0.7500000449276771  0.7499999718253668  1.0000
  S   S1        1.0  3.1734349773205516e-08  8.750768394579382e-09  0.9999999483195642  1.0000
  Cl  Cl1       1.0  0.2537873118850611  0.2537873208220829  0.7462126740936761  1.0000
  Cl  Cl2       1.0  0.7462126863295016  0.7462126556574974  0.2537873283839659  1.0000
  Cl  Cl3       1.0  0.7462126471336414  0.2537873414924058  0.25378736504890076  1.0000
  Cl  Cl4       1.0  0.2537873678646327  0.7462126489884046  0.7462126520451531  1.0000
  Cl  Cl5       1.0  0.25378735874678765  0.7462126781862344  0.25378736542061947  1.0000
  Cl  Cl6       1.0  0.7462126476008113  0.25378733329642  0.7462126540718166  1.0000
