data_image0
_chemical_formula_structural       Sr2SeF6
_chemical_formula_sum              "Sr2 Se1 F6"
_cell_length_a       5.946586557035519
_cell_length_b       5.9465870606817335
_cell_length_c       5.94658739123471
_cell_angle_alpha    59.99999429687641
_cell_angle_beta     59.99999485651666
_cell_angle_gamma    59.9999929118064

_space_group_name_H-M_alt    "P 1"
_space_group_IT_number       1

loop_
  _space_group_symop_operation_xyz
  'x, y, z'

loop_
  _atom_site_type_symbol
  _atom_site_label
  _atom_site_symmetry_multiplicity
  _atom_site_fract_x
  _atom_site_fract_y
  _atom_site_fract_z
  _atom_site_occupancy
  Sr  Sr1       1.0  0.2499999130516071  0.24999999822188954  0.2500000385304063  1.0000
  Sr  Sr2       1.0  0.7500000337949108  0.7500000894061629  0.7499998654069097  1.0000
  Se  Se1       1.0  9.578389135552172e-08  0.9999994912846485  4.6711944356931843e-07  1.0000
  F   F1        1.0  0.25991497504487365  0.2599150136820078  0.7400849985318246  1.0000
  F   F2        1.0  0.740085236217873  0.7400850904226407  0.25991475655089363  1.0000
  F   F3        1.0  0.7400850755635981  0.2599149338758492  0.2599151114345254  1.0000
  F   F4        1.0  0.25991486683060977  0.7400851496330473  0.7400848842336355  1.0000
  F   F5        1.0  0.25991480288988045  0.7400852438998995  0.25991493257744436  1.0000
  F   F6        1.0  0.7400850314103428  0.259914907575026  0.7400849217175631  1.0000
