data_image0
_chemical_formula_structural       Sr2SnCl6
_chemical_formula_sum              "Sr2 Sn1 Cl6"
_cell_length_a       7.161680496530765
_cell_length_b       7.161680635873319
_cell_length_c       7.161680545499275
_cell_angle_alpha    60.00000038337967
_cell_angle_beta     59.999999032826636
_cell_angle_gamma    60.00000102727216

_space_group_name_H-M_alt    "P 1"
_space_group_IT_number       1

loop_
  _space_group_symop_operation_xyz
  'x, y, z'

loop_
  _atom_site_type_symbol
  _atom_site_label
  _atom_site_symmetry_multiplicity
  _atom_site_fract_x
  _atom_site_fract_y
  _atom_site_fract_z
  _atom_site_occupancy
  Sr  Sr1       1.0  0.25000000973925757  0.25000003670009857  0.24999996376147057  1.0000
  Sr  Sr2       1.0  0.7499999647105944  0.7499999698691352  0.7500000606769565  1.0000
  Sn  Sn1       1.0  0.9999998933401499  9.747775694684443e-08  5.485857827479661e-08  1.0000
  Cl  Cl1       1.0  0.25912392382419  0.25912396122254056  0.7408760970805752  1.0000
  Cl  Cl2       1.0  0.7408761120898797  0.7408760350858771  0.2591239520236817  1.0000
  Cl  Cl3       1.0  0.7408760199281865  0.2591239745880701  0.2591240219255716  1.0000
  Cl  Cl4       1.0  0.25912411147399583  0.7408758900398681  0.74087587352747  1.0000
  Cl  Cl5       1.0  0.2591239948411554  0.7408760137168869  0.25912400351529735  1.0000
  Cl  Cl6       1.0  0.7408759747549214  0.25912402192466044  0.7408759725095324  1.0000
