data_image0
_chemical_formula_structural       Sr2SnF6
_chemical_formula_sum              "Sr2 Sn1 F6"
_cell_length_a       5.9478443188586745
_cell_length_b       5.947844611493045
_cell_length_c       5.947844625754448
_cell_angle_alpha    60.00000174153199
_cell_angle_beta     60.00000019623219
_cell_angle_gamma    60.00000240142622

_space_group_name_H-M_alt    "P 1"
_space_group_IT_number       1

loop_
  _space_group_symop_operation_xyz
  'x, y, z'

loop_
  _atom_site_type_symbol
  _atom_site_label
  _atom_site_symmetry_multiplicity
  _atom_site_fract_x
  _atom_site_fract_y
  _atom_site_fract_z
  _atom_site_occupancy
  Sr  Sr1       1.0  0.24999995157123348  0.250000049524118  0.24999997910396576  1.0000
  Sr  Sr2       1.0  0.7499999619033144  0.7500000250239192  0.7500000144238412  1.0000
  Sn  Sn1       1.0  0.9999999334447873  0.999999960876329  1.3690350579538043e-07  1.0000
  F   F1        1.0  0.26345359285365527  0.26345349475638263  0.7365464710484183  1.0000
  F   F2        1.0  0.7365464555179854  0.7365465303722812  0.2634535015971874  1.0000
  F   F3        1.0  0.7365464598279692  0.2634535075989845  0.2634535831313374  1.0000
  F   F4        1.0  0.2634536314525347  0.7365463713306959  0.7365464058524195  1.0000
  F   F5        1.0  0.26345364824866263  0.7365463752631369  0.26345358337670993  1.0000
  F   F6        1.0  0.7365463548824968  0.2634536807526346  0.7365463241504858  1.0000
