data_image0
_chemical_formula_structural       Sr2SeBr6
_chemical_formula_sum              "Sr2 Se1 Br6"
_cell_length_a       7.439972651556432
_cell_length_b       7.439972886961732
_cell_length_c       7.439972657152647
_cell_angle_alpha    60.000000097006605
_cell_angle_beta     60.00000037038093
_cell_angle_gamma    59.999999560160425

_space_group_name_H-M_alt    "P 1"
_space_group_IT_number       1

loop_
  _space_group_symop_operation_xyz
  'x, y, z'

loop_
  _atom_site_type_symbol
  _atom_site_label
  _atom_site_symmetry_multiplicity
  _atom_site_fract_x
  _atom_site_fract_y
  _atom_site_fract_z
  _atom_site_occupancy
  Sr  Sr1       1.0  0.2500000249305491  0.2500000606174547  0.24999989593281385  1.0000
  Sr  Sr2       1.0  0.7499999660748489  0.7499999958353267  0.7500000636608242  1.0000
  Se  Se1       1.0  0.9999999694598135  8.230842250247031e-08  4.535270229774393e-08  1.0000
  Br  Br1       1.0  0.25551006959562106  0.25551006189122916  0.7444899672190635  1.0000
  Br  Br2       1.0  0.7444899043079948  0.7444898875606022  0.25551008802821545  1.0000
  Br  Br3       1.0  0.7444899535724383  0.2555100489924011  0.2555100566552503  1.0000
  Br  Br4       1.0  0.25551011218294584  0.7444898856439138  0.7444898928693551  1.0000
  Br  Br5       1.0  0.25551008050277013  0.744489937593177  0.2555100587965467  1.0000
  Br  Br6       1.0  0.7444899065217347  0.255510056305203  0.7444899354088299  1.0000
