data_image0
_chemical_formula_structural       Sr2SnBr6
_chemical_formula_sum              "Sr2 Sn1 Br6"
_cell_length_a       7.472368891688264
_cell_length_b       7.4723688865423386
_cell_length_c       7.4723691205358485
_cell_angle_alpha    59.99999869614173
_cell_angle_beta     60.00000065928388
_cell_angle_gamma    59.99999949369709

_space_group_name_H-M_alt    "P 1"
_space_group_IT_number       1

loop_
  _space_group_symop_operation_xyz
  'x, y, z'

loop_
  _atom_site_type_symbol
  _atom_site_label
  _atom_site_symmetry_multiplicity
  _atom_site_fract_x
  _atom_site_fract_y
  _atom_site_fract_z
  _atom_site_occupancy
  Sr  Sr1       1.0  0.24999992945059205  0.2499999777284621  0.2500000490280453  1.0000
  Sr  Sr2       1.0  0.7500000719975035  0.7500000233321262  0.7499999280695779  1.0000
  Sn  Sn1       1.0  4.723462126571271e-08  0.9999999000190707  6.652106445107317e-08  1.0000
  Br  Br1       1.0  0.2599501218387447  0.2599501226415495  0.7400498724175968  1.0000
  Br  Br2       1.0  0.7400499850321149  0.7400499144777344  0.2599500620428347  1.0000
  Br  Br3       1.0  0.7400498926247836  0.2599500497488776  0.25995010948470687  1.0000
  Br  Br4       1.0  0.2599500549255057  0.7400499414775205  0.7400499449798782  1.0000
  Br  Br5       1.0  0.2599499981509959  0.7400499623603297  0.25995004787459064  1.0000
  Br  Br6       1.0  0.7400499035385727  0.2599501108176503  0.7400499136017985  1.0000
