data_image0
_chemical_formula_structural       Sr2SI6
_chemical_formula_sum              "Sr2 S1 I6"
_cell_length_a       7.83817378583678
_cell_length_b       7.838173849830374
_cell_length_c       7.838173722345495
_cell_angle_alpha    59.99999931278051
_cell_angle_beta     60.00000153575432
_cell_angle_gamma    59.999999046754986

_space_group_name_H-M_alt    "P 1"
_space_group_IT_number       1

loop_
  _space_group_symop_operation_xyz
  'x, y, z'

loop_
  _atom_site_type_symbol
  _atom_site_label
  _atom_site_symmetry_multiplicity
  _atom_site_fract_x
  _atom_site_fract_y
  _atom_site_fract_z
  _atom_site_occupancy
  Sr  Sr1       1.0  0.2500000786105408  0.249999949182421  0.2499999771036435  1.0000
  Sr  Sr2       1.0  0.7499998875927375  0.7500000834905889  0.7500000104232375  1.0000
  S   S1        1.0  1.1680707681247321e-08  3.125077112835322e-08  0.9999999734310309  1.0000
  I   I1        1.0  0.2616032263894081  0.261603210415881  0.738396771175783  1.0000
  I   I2        1.0  0.7383967585796665  0.738396739442585  0.26160324709966554  1.0000
  I   I3        1.0  0.7383967523538817  0.26160322508615486  0.2616032326335075  1.0000
  I   I4        1.0  0.26160327591682525  0.738396771648467  0.7383967635175797  1.0000
  I   I5        1.0  0.26160324676851765  0.738396752429476  0.2616032268050458  1.0000
  I   I6        1.0  0.7383967634819644  0.2616032364924528  0.7383968026754187  1.0000
