data_image0
_chemical_formula_structural       Sr2SeI6
_chemical_formula_sum              "Sr2 Se1 I6"
_cell_length_a       7.962153257735711
_cell_length_b       7.962153213392497
_cell_length_c       7.962153350852693
_cell_angle_alpha    59.99999893351272
_cell_angle_beta     59.99999935502058
_cell_angle_gamma    60.00000090697081

_space_group_name_H-M_alt    "P 1"
_space_group_IT_number       1

loop_
  _space_group_symop_operation_xyz
  'x, y, z'

loop_
  _atom_site_type_symbol
  _atom_site_label
  _atom_site_symmetry_multiplicity
  _atom_site_fract_x
  _atom_site_fract_y
  _atom_site_fract_z
  _atom_site_occupancy
  Sr  Sr1       1.0  0.250000013347355  0.250000156224838  0.2499997912823914  1.0000
  Sr  Sr2       1.0  0.7499999355323204  0.7499998903082538  0.7500002264534297  1.0000
  Se  Se1       1.0  3.337053300259296e-08  0.9999999738504626  0.9999999750384942  1.0000
  I   I1        1.0  0.2629093813845015  0.262909398189304  0.737090640007377  1.0000
  I   I2        1.0  0.7370906493393125  0.7370905898918805  0.2629093559847953  1.0000
  I   I3        1.0  0.7370906148849717  0.2629094111807249  0.26290938132891  1.0000
  I   I4        1.0  0.2629093530388144  0.7370905999735803  0.737090648342074  1.0000
  I   I5        1.0  0.26290944329245275  0.7370905852537499  0.2629093365363235  1.0000
  I   I6        1.0  0.7370905729289959  0.2629094028274344  0.7370906478679068  1.0000
