data_image0
_chemical_formula_structural       Sr2SBr6
_chemical_formula_sum              "Sr2 S1 Br6"
_cell_length_a       7.303517218282319
_cell_length_b       7.303517088544275
_cell_length_c       7.303517194598585
_cell_angle_alpha    60.00000039105316
_cell_angle_beta     59.99999915370298
_cell_angle_gamma    59.99999972185278

_space_group_name_H-M_alt    "P 1"
_space_group_IT_number       1

loop_
  _space_group_symop_operation_xyz
  'x, y, z'

loop_
  _atom_site_type_symbol
  _atom_site_label
  _atom_site_symmetry_multiplicity
  _atom_site_fract_x
  _atom_site_fract_y
  _atom_site_fract_z
  _atom_site_occupancy
  Sr  Sr1       1.0  0.24999998756951503  0.25000001877934286  0.24999998882489433  1.0000
  Sr  Sr2       1.0  0.7499999709178138  0.7500000127379846  0.7499999704780372  1.0000
  S   S1        1.0  4.463571953088448e-08  8.384624265593392e-09  7.719910867753042e-09  1.0000
  Br  Br1       1.0  0.25479793189059663  0.25479793700874465  0.745202070239285  1.0000
  Br  Br2       1.0  0.7452020898539787  0.7452020660008628  0.2547979469950651  1.0000
  Br  Br3       1.0  0.7452020652686239  0.2547979301333654  0.254797862857173  1.0000
  Br  Br4       1.0  0.2547979391970946  0.7452020393377453  0.7452020743571982  1.0000
  Br  Br5       1.0  0.25479789922503643  0.7452020595570418  0.25479796049866477  1.0000
  Br  Br6       1.0  0.7452020724064291  0.25479791829869447  0.7452021135380227  1.0000
