data_image0
_chemical_formula_structural       Sr2SeCl6
_chemical_formula_sum              "Sr2 Se1 Cl6"
_cell_length_a       7.067306560775988
_cell_length_b       7.067306461196584
_cell_length_c       7.067306443299501
_cell_angle_alpha    59.999998764243536
_cell_angle_beta     60.000000351002775
_cell_angle_gamma    59.999998850747716

_space_group_name_H-M_alt    "P 1"
_space_group_IT_number       1

loop_
  _space_group_symop_operation_xyz
  'x, y, z'

loop_
  _atom_site_type_symbol
  _atom_site_label
  _atom_site_symmetry_multiplicity
  _atom_site_fract_x
  _atom_site_fract_y
  _atom_site_fract_z
  _atom_site_occupancy
  Sr  Sr1       1.0  0.24999998536177043  0.24999998925962863  0.250000006757122  1.0000
  Sr  Sr2       1.0  0.7500000283376815  0.7500000059042841  0.7499999806471096  1.0000
  Se  Se1       1.0  3.424600688561703e-08  0.9999999462778472  8.323107208018797e-09  1.0000
  Cl  Cl1       1.0  0.25110153838370936  0.251101579154141  0.7488984308079225  1.0000
  Cl  Cl2       1.0  0.7488984446347916  0.7488984541351704  0.25110155428905107  1.0000
  Cl  Cl3       1.0  0.7488984685806175  0.25110152002258407  0.251101534539167  1.0000
  Cl  Cl4       1.0  0.25110150531147807  0.7488985063348366  0.7488984812264148  1.0000
  Cl  Cl5       1.0  0.2511015226178701  0.7488984770146212  0.25110150924385677  1.0000
  Cl  Cl6       1.0  0.7488984733894233  0.251101532013073  0.748898495639192  1.0000
