data_image0
_chemical_formula_structural       Sr2ScCl6
_chemical_formula_sum              "Sr2 Sc1 Cl6"
_cell_length_a       6.9776347861609995
_cell_length_b       6.977634025241058
_cell_length_c       6.977634452125431
_cell_angle_alpha    60.00000284422616
_cell_angle_beta     60.000005512320556
_cell_angle_gamma    59.99999894690852

_space_group_name_H-M_alt    "P 1"
_space_group_IT_number       1

loop_
  _space_group_symop_operation_xyz
  'x, y, z'

loop_
  _atom_site_type_symbol
  _atom_site_label
  _atom_site_symmetry_multiplicity
  _atom_site_fract_x
  _atom_site_fract_y
  _atom_site_fract_z
  _atom_site_occupancy
  Sr  Sr1       1.0  0.2500000921302069  0.24999978937614045  0.2500002226127503  1.0000
  Sr  Sr2       1.0  0.7499999000229495  0.7500001000650509  0.7499997749117097  1.0000
  Sc  Sc1       1.0  0.9999999590787579  6.318877277662894e-08  0.999999898577757  1.0000
  Cl  Cl1       1.0  0.25037762173211026  0.25037776266926115  0.7496223384716335  1.0000
  Cl  Cl2       1.0  0.7496223653531199  0.7496223058068  0.25037769818660144  1.0000
  Cl  Cl3       1.0  0.7496223007787921  0.25037768392136933  0.2503777001903596  1.0000
  Cl  Cl4       1.0  0.25037766001223  0.7496224038623727  0.7496223184638818  1.0000
  Cl  Cl5       1.0  0.2503776955399904  0.7496222081988082  0.25037776571228504  1.0000
  Cl  Cl6       1.0  0.7496224124533298  0.2503776812423851  0.749622272779477  1.0000
