data_image0
_chemical_formula_structural       Sr2ScF6
_chemical_formula_sum              "Sr2 Sc1 F6"
_cell_length_a       5.9632942606428205
_cell_length_b       5.9632942705995475
_cell_length_c       5.963293847329423
_cell_angle_alpha    59.99999885689713
_cell_angle_beta     60.00000098169045
_cell_angle_gamma    60.00000076915855

_space_group_name_H-M_alt    "P 1"
_space_group_IT_number       1

loop_
  _space_group_symop_operation_xyz
  'x, y, z'

loop_
  _atom_site_type_symbol
  _atom_site_label
  _atom_site_symmetry_multiplicity
  _atom_site_fract_x
  _atom_site_fract_y
  _atom_site_fract_z
  _atom_site_occupancy
  Sr  Sr1       1.0  0.2500000784210765  0.24999996253043702  0.2500000335598511  1.0000
  Sr  Sr2       1.0  0.7500000259598686  0.7499999984968311  0.7499999939243938  1.0000
  Sc  Sc1       1.0  1.079586655596204e-08  4.312992203511154e-08  1.8314095148344415e-08  1.0000
  F   F1        1.0  0.2425257829094999  0.24252579638105531  0.7574741751699843  1.0000
  F   F2        1.0  0.7574741579961082  0.7574742077761372  0.24252582696376293  1.0000
  F   F3        1.0  0.7574741930952595  0.24252579352114312  0.24252572996623548  1.0000
  F   F4        1.0  0.2425258420268879  0.7574741777751592  0.7574741626741844  1.0000
  F   F5        1.0  0.2425257318105926  0.7574742325719919  0.24252575272220087  1.0000
  F   F6        1.0  0.7574742013496283  0.24252577158519897  0.7574742985612315  1.0000
