data_image0
_chemical_formula_structural       Sr2TiBr6
_chemical_formula_sum              "Sr2 Ti1 Br6"
_cell_length_a       7.287363514295162
_cell_length_b       7.2873637637969555
_cell_length_c       7.287363654748517
_cell_angle_alpha    59.999998749740925
_cell_angle_beta     60.000000705085405
_cell_angle_gamma    59.99999970558618

_space_group_name_H-M_alt    "P 1"
_space_group_IT_number       1

loop_
  _space_group_symop_operation_xyz
  'x, y, z'

loop_
  _atom_site_type_symbol
  _atom_site_label
  _atom_site_symmetry_multiplicity
  _atom_site_fract_x
  _atom_site_fract_y
  _atom_site_fract_z
  _atom_site_occupancy
  Sr  Sr1       1.0  0.2500000081660437  0.2500000082073591  0.2499999639681537  1.0000
  Sr  Sr2       1.0  0.7500000107976271  0.7500000229414333  0.7499999901627671  1.0000
  Ti  Ti1       1.0  4.896100457714988e-08  0.9999999529420257  4.021563700532112e-08  1.0000
  Br  Br1       1.0  0.2505867001588646  0.2505867868523768  0.7494132578247683  1.0000
  Br  Br2       1.0  0.7494132723895033  0.7494132409351308  0.25058677059502715  1.0000
  Br  Br3       1.0  0.7494132130760197  0.2505867524009769  0.25058680975199216  1.0000
  Br  Br4       1.0  0.25058681022660084  0.7494131896737954  0.7494131702796045  1.0000
  Br  Br5       1.0  0.2505867110256984  0.7494132911477931  0.2505867509456706  1.0000
  Br  Br6       1.0  0.7494132269349932  0.2505867500848508  0.7494132482504816  1.0000
