data_image0
_chemical_formula_structural       Sr2TiCl6
_chemical_formula_sum              "Sr2 Ti1 Cl6"
_cell_length_a       6.881521332059693
_cell_length_b       6.8815217353493985
_cell_length_c       6.881521158990139
_cell_angle_alpha    59.999999616451056
_cell_angle_beta     59.99999913801045
_cell_angle_gamma    60.00000498636194

_space_group_name_H-M_alt    "P 1"
_space_group_IT_number       1

loop_
  _space_group_symop_operation_xyz
  'x, y, z'

loop_
  _atom_site_type_symbol
  _atom_site_label
  _atom_site_symmetry_multiplicity
  _atom_site_fract_x
  _atom_site_fract_y
  _atom_site_fract_z
  _atom_site_occupancy
  Sr  Sr1       1.0  0.25000023279117095  0.25000007936044794  0.25000010803315126  1.0000
  Sr  Sr2       1.0  0.7500001350197204  0.7499999800163119  0.7500002843270847  1.0000
  Ti  Ti1       1.0  0.9999998415086601  0.9999999519465066  8.874074904340495e-08  1.0000
  Cl  Cl1       1.0  0.24907760207920035  0.24907749465815696  0.7509223917912018  1.0000
  Cl  Cl2       1.0  0.750922569781104  0.7509226038733061  0.24907737272777725  1.0000
  Cl  Cl3       1.0  0.7509224421077731  0.24907745381534313  0.2490773496143982  1.0000
  Cl  Cl4       1.0  0.24907727353005346  0.7509226642934475  0.7509225024421244  1.0000
  Cl  Cl5       1.0  0.24907736259657612  0.750922452995764  0.24907741475825415  1.0000
  Cl  Cl6       1.0  0.7509225329799833  0.24907732161959906  0.7509224972781154  1.0000
