data_image0
_chemical_formula_structural       Sr2TiI6
_chemical_formula_sum              "Sr2 Ti1 I6"
_cell_length_a       8.016002542498102
_cell_length_b       8.01600268178633
_cell_length_c       8.016002257747783
_cell_angle_alpha    60.00000158502695
_cell_angle_beta     60.000001852041336
_cell_angle_gamma    59.99999911130556

_space_group_name_H-M_alt    "P 1"
_space_group_IT_number       1

loop_
  _space_group_symop_operation_xyz
  'x, y, z'

loop_
  _atom_site_type_symbol
  _atom_site_label
  _atom_site_symmetry_multiplicity
  _atom_site_fract_x
  _atom_site_fract_y
  _atom_site_fract_z
  _atom_site_occupancy
  Sr  Sr1       1.0  0.24999976479402514  0.2499999224783388  0.25000012503673025  1.0000
  Sr  Sr2       1.0  0.7500002214735189  0.7500000500918322  0.7499999087090804  1.0000
  Ti  Ti1       1.0  9.399406050872975e-09  1.0695123638534727e-08  0.9999999475375775  1.0000
  I   I1        1.0  0.24955262807837805  0.2495526639544323  0.7504473539828752  1.0000
  I   I2        1.0  0.7504473577522623  0.7504473315338611  0.24955266228480277  1.0000
  I   I3        1.0  0.7504473545583601  0.24955266282725416  0.24955267793184321  1.0000
  I   I4        1.0  0.24955263438542558  0.7504473708579094  0.7504473226708457  1.0000
  I   I5        1.0  0.24955264972729907  0.7504473577965854  0.2495526721909732  1.0000
  I   I6        1.0  0.7504473771212326  0.249552626996583  0.7504473314103312  1.0000
