data_image0
_chemical_formula_structural       Sr2TiF6
_chemical_formula_sum              "Sr2 Ti1 F6"
_cell_length_a       5.7978535274977405
_cell_length_b       5.7978537240268775
_cell_length_c       5.797854021630689
_cell_angle_alpha    59.999999363482154
_cell_angle_beta     59.999997808433896
_cell_angle_gamma    60.000000342202206

_space_group_name_H-M_alt    "P 1"
_space_group_IT_number       1

loop_
  _space_group_symop_operation_xyz
  'x, y, z'

loop_
  _atom_site_type_symbol
  _atom_site_label
  _atom_site_symmetry_multiplicity
  _atom_site_fract_x
  _atom_site_fract_y
  _atom_site_fract_z
  _atom_site_occupancy
  Sr  Sr1       1.0  0.2499999284449094  0.250000000356671  0.2500000541730604  1.0000
  Sr  Sr2       1.0  0.7499999941696623  0.7500000855664445  0.7499999330642478  1.0000
  Ti  Ti1       1.0  0.999999982417304  1.6899285746892884e-08  0.999999960671855  1.0000
  F   F1        1.0  0.2461766471035507  0.2461765458839398  0.7538233873951454  1.0000
  F   F2        1.0  0.7538233284213732  0.7538234111821187  0.24617665506327527  1.0000
  F   F3        1.0  0.7538234492076841  0.24617655033296543  0.24617663835185707  1.0000
  F   F4        1.0  0.2461765837112109  0.7538234257447908  0.7538234090231322  1.0000
  F   F5        1.0  0.24617659138886253  0.7538234229528024  0.24617659984469628  1.0000
  F   F6        1.0  0.7538234640416865  0.24617652143879204  0.753823424521129  1.0000
