data_image0
_chemical_formula_structural       Sr2VCl6
_chemical_formula_sum              "Sr2 V1 Cl6"
_cell_length_a       6.834990330523436
_cell_length_b       6.83499003626948
_cell_length_c       6.83499014610742
_cell_angle_alpha    59.99999932872583
_cell_angle_beta     59.999999022986344
_cell_angle_gamma    60.00000372926187

_space_group_name_H-M_alt    "P 1"
_space_group_IT_number       1

loop_
  _space_group_symop_operation_xyz
  'x, y, z'

loop_
  _atom_site_type_symbol
  _atom_site_label
  _atom_site_symmetry_multiplicity
  _atom_site_fract_x
  _atom_site_fract_y
  _atom_site_fract_z
  _atom_site_occupancy
  Sr  Sr1       1.0  0.24999985604657463  0.25000015499104833  0.2500000970416024  1.0000
  Sr  Sr2       1.0  0.7500000713807975  0.7500001209331475  0.7499999130600428  1.0000
  V   V1        1.0  0.9999999442323524  3.0461873602371505e-08  0.9999999380368328  1.0000
  Cl  Cl1       1.0  0.2490305941957101  0.24903063676248632  0.7509694764078386  1.0000
  Cl  Cl2       1.0  0.750969344176306  0.7509692718273094  0.24903071335174468  1.0000
  Cl  Cl3       1.0  0.7509693051612231  0.2490307244185973  0.2490306474702438  1.0000
  Cl  Cl4       1.0  0.2490306981895026  0.75096937948559  0.750969246817019  1.0000
  Cl  Cl5       1.0  0.24903080400904778  0.750969125871934  0.24903067462051068  1.0000
  Cl  Cl6       1.0  0.7509693871107735  0.24903055156598344  0.7509692965866002  1.0000
