data_image0
_chemical_formula_structural       Sr2VI6
_chemical_formula_sum              "Sr2 V1 I6"
_cell_length_a       7.8987663373465065
_cell_length_b       7.89876649937083
_cell_length_c       7.898766494037275
_cell_angle_alpha    59.99999929440786
_cell_angle_beta     60.000000210722085
_cell_angle_gamma    60.00000096991036

_space_group_name_H-M_alt    "P 1"
_space_group_IT_number       1

loop_
  _space_group_symop_operation_xyz
  'x, y, z'

loop_
  _atom_site_type_symbol
  _atom_site_label
  _atom_site_symmetry_multiplicity
  _atom_site_fract_x
  _atom_site_fract_y
  _atom_site_fract_z
  _atom_site_occupancy
  Sr  Sr1       1.0  0.24999991242158112  0.2500001819575189  0.24999995091849225  1.0000
  Sr  Sr2       1.0  0.7500000499415783  0.7499997876525979  0.7500000945173516  1.0000
  V   V1        1.0  0.999999960352033  9.303311740951314e-09  3.669467515409773e-08  1.0000
  I   I1        1.0  0.24836707642051725  0.24836711923119156  0.7516329031899612  1.0000
  I   I2        1.0  0.751632940607099  0.7516328968954882  0.24836707393108653  1.0000
  I   I3        1.0  0.751632935618459  0.24836712754224136  0.2483670460599566  1.0000
  I   I4        1.0  0.24836711994995975  0.751632860674502  0.7516329016912698  1.0000
  I   I5        1.0  0.2483671109467156  0.7516328788805229  0.24836709565103177  1.0000
  I   I6        1.0  0.7516328924071793  0.24836713879670877  0.7516328938617031  1.0000
