data_image0
_chemical_formula_structural       Sr2VBr6
_chemical_formula_sum              "Sr2 V1 Br6"
_cell_length_a       7.2098996592526
_cell_length_b       7.209899626456823
_cell_length_c       7.209899542335626
_cell_angle_alpha    60.000002666743356
_cell_angle_beta     60.00000088996057
_cell_angle_gamma    60.00000094096281

_space_group_name_H-M_alt    "P 1"
_space_group_IT_number       1

loop_
  _space_group_symop_operation_xyz
  'x, y, z'

loop_
  _atom_site_type_symbol
  _atom_site_label
  _atom_site_symmetry_multiplicity
  _atom_site_fract_x
  _atom_site_fract_y
  _atom_site_fract_z
  _atom_site_occupancy
  Sr  Sr1       1.0  0.24999993228119477  0.2499999824237615  0.24999999891840075  1.0000
  Sr  Sr2       1.0  0.7500000933715351  0.7500000186166417  0.7500000569273606  1.0000
  V   V1        1.0  2.6093861585375752e-08  3.397398054847168e-09  3.2851347087892407e-09  1.0000
  Br  Br1       1.0  0.2503424068120203  0.25034247445810864  0.7496575570901157  1.0000
  Br  Br2       1.0  0.749657461841794  0.7496574450447461  0.25034248626059746  1.0000
  Br  Br3       1.0  0.7496576920347557  0.2503423705745537  0.25034234500541896  1.0000
  Br  Br4       1.0  0.25034231399412105  0.749657679728115  0.7496576197371336  1.0000
  Br  Br5       1.0  0.2503423669796768  0.7496576691837799  0.2503423641139942  1.0000
  Br  Br6       1.0  0.7496577073662287  0.2503423539397064  0.7496575758986894  1.0000
