data_image0
_chemical_formula_structural       Sr2YF6
_chemical_formula_sum              "Sr2 Y1 F6"
_cell_length_a       6.130136401113127
_cell_length_b       6.130136352328427
_cell_length_c       6.130136437261205
_cell_angle_alpha    60.00000417235447
_cell_angle_beta     60.00000210729229
_cell_angle_gamma    59.999998390560656

_space_group_name_H-M_alt    "P 1"
_space_group_IT_number       1

loop_
  _space_group_symop_operation_xyz
  'x, y, z'

loop_
  _atom_site_type_symbol
  _atom_site_label
  _atom_site_symmetry_multiplicity
  _atom_site_fract_x
  _atom_site_fract_y
  _atom_site_fract_z
  _atom_site_occupancy
  Sr  Sr1       1.0  0.24999999197995373  0.2500000189565505  0.250000033954783  1.0000
  Sr  Sr2       1.0  0.7499999748364473  0.7500000488780193  0.7500000982554466  1.0000
  Y   Y1        1.0  0.9999999951096892  2.5972804507416524e-08  8.777494266056054e-10  1.0000
  F   F1        1.0  0.2466887685522307  0.24668869632081525  0.7533112564665639  1.0000
  F   F2        1.0  0.7533112281381357  0.7533112536371741  0.2466887354097575  1.0000
  F   F3        1.0  0.7533113067301304  0.2466887066953733  0.24668865187106445  1.0000
  F   F4        1.0  0.24668867142735412  0.7533112932103138  0.753311260677733  1.0000
  F   F5        1.0  0.24668869964310902  0.7533112750188847  0.2466886948490381  1.0000
  F   F6        1.0  0.7533113488948431  0.24668868892445606  0.7533112135409792  1.0000
