data_image0
_chemical_formula_structural       Sr2YBr6
_chemical_formula_sum              "Sr2 Y1 Br6"
_cell_length_a       7.55463987974117
_cell_length_b       7.554639884321348
_cell_length_c       7.55463975531968
_cell_angle_alpha    59.99999934119637
_cell_angle_beta     59.9999991875958
_cell_angle_gamma    60.00000178026353

_space_group_name_H-M_alt    "P 1"
_space_group_IT_number       1

loop_
  _space_group_symop_operation_xyz
  'x, y, z'

loop_
  _atom_site_type_symbol
  _atom_site_label
  _atom_site_symmetry_multiplicity
  _atom_site_fract_x
  _atom_site_fract_y
  _atom_site_fract_z
  _atom_site_occupancy
  Sr  Sr1       1.0  0.2499999936399265  0.24999995298279956  0.24999994667183337  1.0000
  Sr  Sr2       1.0  0.7500000077195069  0.7500000032336239  0.7500000628927583  1.0000
  Y   Y1        1.0  2.911765174531057e-08  2.2696553366565695e-08  0.999999972769207  1.0000
  Br  Br1       1.0  0.256984335060381  0.2569843654097787  0.7430156824352887  1.0000
  Br  Br2       1.0  0.7430156641056618  0.743015652411573  0.25698434110529883  1.0000
  Br  Br3       1.0  0.7430156391677517  0.25698435391014957  0.25698440770661224  1.0000
  Br  Br4       1.0  0.25698434309245555  0.743015668774749  0.7430155847918039  1.0000
  Br  Br5       1.0  0.2569843952127622  0.7430155919651156  0.2569844058523998  1.0000
  Br  Br6       1.0  0.743015586615675  0.25698439991731864  0.743015598292064  1.0000
