data_image0
_chemical_formula_structural       Sr2YCl6
_chemical_formula_sum              "Sr2 Y1 Cl6"
_cell_length_a       7.166288386883884
_cell_length_b       7.166288359455832
_cell_length_c       7.166288409356284
_cell_angle_alpha    60.000000307290854
_cell_angle_beta     59.99999946446382
_cell_angle_gamma    59.99999943772038

_space_group_name_H-M_alt    "P 1"
_space_group_IT_number       1

loop_
  _space_group_symop_operation_xyz
  'x, y, z'

loop_
  _atom_site_type_symbol
  _atom_site_label
  _atom_site_symmetry_multiplicity
  _atom_site_fract_x
  _atom_site_fract_y
  _atom_site_fract_z
  _atom_site_occupancy
  Sr  Sr1       1.0  0.2500000094863581  0.25000000258651617  0.25000002421001005  1.0000
  Sr  Sr2       1.0  0.7500000535723765  0.750000014595694  0.7499999422306622  1.0000
  Y   Y1        1.0  3.043876746317712e-09  0.9999999812005985  7.625346417993066e-08  1.0000
  Cl  Cl1       1.0  0.2567923006802525  0.25679232776033506  0.7432076860749154  1.0000
  Cl  Cl2       1.0  0.7432077384855098  0.7432077030941675  0.2567922673356045  1.0000
  Cl  Cl3       1.0  0.743207716303595  0.2567922492861769  0.25679233148257247  1.0000
  Cl  Cl4       1.0  0.2567922798794465  0.7432076978255352  0.7432077062220401  1.0000
  Cl  Cl5       1.0  0.25679226342440487  0.7432077197028389  0.2567922774377751  1.0000
  Cl  Cl6       1.0  0.7432076373654609  0.25679230089744454  0.7432076833075236  1.0000
