data_image0
_chemical_formula_structural       Sr2YI6
_chemical_formula_sum              "Sr2 Y1 I6"
_cell_length_a       8.182541461552722
_cell_length_b       8.182541326950837
_cell_length_c       8.182541465828512
_cell_angle_alpha    59.999998974259675
_cell_angle_beta     59.999998599680964
_cell_angle_gamma    60.00000017032898

_space_group_name_H-M_alt    "P 1"
_space_group_IT_number       1

loop_
  _space_group_symop_operation_xyz
  'x, y, z'

loop_
  _atom_site_type_symbol
  _atom_site_label
  _atom_site_symmetry_multiplicity
  _atom_site_fract_x
  _atom_site_fract_y
  _atom_site_fract_z
  _atom_site_occupancy
  Sr  Sr1       1.0  0.24999996438415778  0.2500000464901422  0.2500000713759333  1.0000
  Sr  Sr2       1.0  0.7500000465892208  0.7499999374053826  0.7499999927969959  1.0000
  Y   Y1        1.0  1.7362121113107634e-08  0.9999999775483285  4.7762999975736485e-08  1.0000
  I   I1        1.0  0.2573479696128686  0.2573479922862196  0.7426520061904617  1.0000
  I   I2        1.0  0.7426520252383608  0.7426520230416455  0.25734797088994993  1.0000
  I   I3        1.0  0.7426520103969334  0.2573480078153952  0.25734799028676275  1.0000
  I   I4        1.0  0.2573480258210954  0.7426519596155706  0.7426519753933282  1.0000
  I   I5        1.0  0.2573479692026677  0.7426520269886608  0.2573479863351862  1.0000
  I   I6        1.0  0.742651971253458  0.2573480287522126  0.7426519610728478  1.0000
