data_image0
_chemical_formula_structural       Sr2ZnI6
_chemical_formula_sum              "Sr2 Zn1 I6"
_cell_length_a       7.838961627046205
_cell_length_b       7.838961696948835
_cell_length_c       7.8389614187259
_cell_angle_alpha    59.99999927462458
_cell_angle_beta     60.0000018857853
_cell_angle_gamma    59.99999898395968

_space_group_name_H-M_alt    "P 1"
_space_group_IT_number       1

loop_
  _space_group_symop_operation_xyz
  'x, y, z'

loop_
  _atom_site_type_symbol
  _atom_site_label
  _atom_site_symmetry_multiplicity
  _atom_site_fract_x
  _atom_site_fract_y
  _atom_site_fract_z
  _atom_site_occupancy
  Sr  Sr1       1.0  0.24999977832402254  0.24999997105073152  0.2500002219344291  1.0000
  Sr  Sr2       1.0  0.750000158422403  0.7500000147069923  0.7499998397321548  1.0000
  Zn  Zn1       1.0  0.9999999992111434  1.562381552090852e-08  0.9999999798257284  1.0000
  I   I1        1.0  0.25145782091631963  0.2514578228086496  0.7485421715007392  1.0000
  I   I2        1.0  0.7485421845415985  0.7485421645114562  0.25145779762334414  1.0000
  I   I3        1.0  0.7485421734966383  0.25145784782008873  0.2514578319934119  1.0000
  I   I4        1.0  0.2514578385222301  0.7485421816843166  0.7485421688879306  1.0000
  I   I5        1.0  0.25145784465268634  0.7485421349082915  0.2514578189915119  1.0000
  I   I6        1.0  0.7485422036123809  0.2514578477246684  0.7485421667915877  1.0000
