data_image0
_chemical_formula_structural       Sr2ZnF6
_chemical_formula_sum              "Sr2 Zn1 F6"
_cell_length_a       5.585404962076034
_cell_length_b       5.585404883871948
_cell_length_c       5.585405011137404
_cell_angle_alpha    59.999998922767844
_cell_angle_beta     59.999998249997134
_cell_angle_gamma    59.9999999164059

_space_group_name_H-M_alt    "P 1"
_space_group_IT_number       1

loop_
  _space_group_symop_operation_xyz
  'x, y, z'

loop_
  _atom_site_type_symbol
  _atom_site_label
  _atom_site_symmetry_multiplicity
  _atom_site_fract_x
  _atom_site_fract_y
  _atom_site_fract_z
  _atom_site_occupancy
  Sr  Sr1       1.0  0.2500000635693745  0.24999994920530463  0.25000004295843475  1.0000
  Sr  Sr2       1.0  0.7500000142915161  0.749999992338029  0.749999935248038  1.0000
  Zn  Zn1       1.0  1.4367583419933004e-08  0.9999999693013691  1.0040017762367905e-09  1.0000
  F   F1        1.0  0.250547017724338  0.250546977811544  0.7494530093947032  1.0000
  F   F2        1.0  0.7494530143824515  0.7494530141652544  0.2505469575201861  1.0000
  F   F3        1.0  0.7494528916088742  0.2505471122562944  0.25054710468713537  1.0000
  F   F4        1.0  0.2505470213831983  0.7494529827801926  0.7494529776780968  1.0000
  F   F5        1.0  0.25054701357427933  0.74945299720774  0.25054701420233394  1.0000
  F   F6        1.0  0.7494529597902914  0.2505470035400953  0.7494529669558639  1.0000
