data_image0
_chemical_formula_structural       Sr2ZnBr6
_chemical_formula_sum              "Sr2 Zn1 Br6"
_cell_length_a       7.158219565366835
_cell_length_b       7.1582193760404795
_cell_length_c       7.158219570710836
_cell_angle_alpha    59.99999958666845
_cell_angle_beta     59.9999997366079
_cell_angle_gamma    59.99999987396269

_space_group_name_H-M_alt    "P 1"
_space_group_IT_number       1

loop_
  _space_group_symop_operation_xyz
  'x, y, z'

loop_
  _atom_site_type_symbol
  _atom_site_label
  _atom_site_symmetry_multiplicity
  _atom_site_fract_x
  _atom_site_fract_y
  _atom_site_fract_z
  _atom_site_occupancy
  Sr  Sr1       1.0  0.2500000070220309  0.24999995972855768  0.24999993112761976  1.0000
  Sr  Sr2       1.0  0.7499999942274261  0.7500000177736815  0.7500001342548899  1.0000
  Zn  Zn1       1.0  5.54971705602392e-08  2.2242519796615513e-08  0.9999999499541914  1.0000
  Br  Br1       1.0  0.2518879127770957  0.2518878600973359  0.7481120957738572  1.0000
  Br  Br2       1.0  0.7481120792018889  0.7481120677869745  0.25188791663012255  1.0000
  Br  Br3       1.0  0.7481121059439154  0.25188793694952294  0.2518878584652342  1.0000
  Br  Br4       1.0  0.25188787040712085  0.7481121055693116  0.7481121812702065  1.0000
  Br  Br5       1.0  0.251887856041326  0.7481121280506724  0.25188783889595245  1.0000
  Br  Br6       1.0  0.748112123357019  0.2518878956475679  0.7481120913785153  1.0000
