data_image0
_chemical_formula_structural       Sr2ZnCl6
_chemical_formula_sum              "Sr2 Zn1 Cl6"
_cell_length_a       6.737534920859466
_cell_length_b       6.737534865127509
_cell_length_c       6.7375347829443495
_cell_angle_alpha    59.9999989033236
_cell_angle_beta     59.99999911260029
_cell_angle_gamma    60.00000058897381

_space_group_name_H-M_alt    "P 1"
_space_group_IT_number       1

loop_
  _space_group_symop_operation_xyz
  'x, y, z'

loop_
  _atom_site_type_symbol
  _atom_site_label
  _atom_site_symmetry_multiplicity
  _atom_site_fract_x
  _atom_site_fract_y
  _atom_site_fract_z
  _atom_site_occupancy
  Sr  Sr1       1.0  0.2500000066978879  0.2499999501801512  0.25000001258365134  1.0000
  Sr  Sr2       1.0  0.7500000318647307  0.7499998923497099  0.7500000391610172  1.0000
  Zn  Zn1       1.0  3.770431188951513e-08  4.2667832267031484e-16  0.9999999974742897  1.0000
  Cl  Cl1       1.0  0.2500857560861824  0.2500858990120196  0.749914302769983  1.0000
  Cl  Cl2       1.0  0.7499142693864852  0.749914090759134  0.2500858229001406  1.0000
  Cl  Cl3       1.0  0.7499140655476264  0.25008582804140644  0.2500858611405295  1.0000
  Cl  Cl4       1.0  0.2500858093483332  0.7499142689795785  0.7499140650438967  1.0000
  Cl  Cl5       1.0  0.25008587998870047  0.7499141218301987  0.25008580133180036  1.0000
  Cl  Cl6       1.0  0.7499141491700083  0.2500859442882945  0.7499140884042762  1.0000
