data_image0
_chemical_formula_structural       Ta2CoSe6
_chemical_formula_sum              "Ta2 Co1 Se6"
_cell_length_a       6.407297597728915
_cell_length_b       6.4072976186121515
_cell_length_c       6.407297484718506
_cell_angle_alpha    60.00000030727753
_cell_angle_beta     60.0000007291214
_cell_angle_gamma    60.00000007108429

_space_group_name_H-M_alt    "P 1"
_space_group_IT_number       1

loop_
  _space_group_symop_operation_xyz
  'x, y, z'

loop_
  _atom_site_type_symbol
  _atom_site_label
  _atom_site_symmetry_multiplicity
  _atom_site_fract_x
  _atom_site_fract_y
  _atom_site_fract_z
  _atom_site_occupancy
  Ta  Ta1       1.0  0.24999986421452963  0.2500000021199035  0.2499998053739795  1.0000
  Ta  Ta2       1.0  0.7500000407486498  0.7499998190342454  0.7500001160354033  1.0000
  Co  Co1       1.0  0.9999999598057793  2.8672264373734916e-08  1.0788168183151653e-09  1.0000
  Se  Se1       1.0  0.253860568464707  0.25386059005495154  0.7461395600113472  1.0000
  Se  Se2       1.0  0.7461394464085426  0.7461394528313724  0.2538604608993834  1.0000
  Se  Se3       1.0  0.7461395215323401  0.25386058217625296  0.25386056442938554  1.0000
  Se  Se4       1.0  0.2538606572473307  0.7461394339492903  0.7461394378515784  1.0000
  Se  Se5       1.0  0.2538604807820652  0.7461394745928479  0.25386063662567715  1.0000
  Se  Se6       1.0  0.7461394595277592  0.25386063519542595  0.7461394084051562  1.0000
