data_image0
_chemical_formula_structural       Ta2CrTe6
_chemical_formula_sum              "Ta2 Cr1 Te6"
_cell_length_a       6.898262016153611
_cell_length_b       6.8982621598698
_cell_length_c       6.898262085066478
_cell_angle_alpha    60.00000096479167
_cell_angle_beta     59.99999934330734
_cell_angle_gamma    60.000000877690155

_space_group_name_H-M_alt    "P 1"
_space_group_IT_number       1

loop_
  _space_group_symop_operation_xyz
  'x, y, z'

loop_
  _atom_site_type_symbol
  _atom_site_label
  _atom_site_symmetry_multiplicity
  _atom_site_fract_x
  _atom_site_fract_y
  _atom_site_fract_z
  _atom_site_occupancy
  Ta  Ta1       1.0  0.24999993647632696  0.25000023565833307  0.24999990394670446  1.0000
  Ta  Ta2       1.0  0.7499999545133118  0.7499999453113684  0.7500002912125303  1.0000
  Cr  Cr1       1.0  0.9999999944039054  0.999999971592965  5.469221730480582e-08  1.0000
  Te  Te1       1.0  0.256183231448415  0.2561831925131616  0.7438167892762175  1.0000
  Te  Te2       1.0  0.743816792104403  0.7438167665265747  0.25618317658435713  1.0000
  Te  Te3       1.0  0.7438168199680302  0.25618323758417627  0.25618315491833293  1.0000
  Te  Te4       1.0  0.25618322497418256  0.743816682395886  0.7438167646910425  1.0000
  Te  Te5       1.0  0.2561833300689913  0.7438167334830109  0.25618315100535155  1.0000
  Te  Te6       1.0  0.7438167217370606  0.256183236209363  0.7438167069742174  1.0000
