data_image0
_chemical_formula_structural       Ta2CrO6
_chemical_formula_sum              "Ta2 Cr1 O6"
_cell_length_a       4.846770915403398
_cell_length_b       4.846771110364072
_cell_length_c       4.846770982345668
_cell_angle_alpha    60.00000026317352
_cell_angle_beta     59.999999747510834
_cell_angle_gamma    59.99999991396859

_space_group_name_H-M_alt    "P 1"
_space_group_IT_number       1

loop_
  _space_group_symop_operation_xyz
  'x, y, z'

loop_
  _atom_site_type_symbol
  _atom_site_label
  _atom_site_symmetry_multiplicity
  _atom_site_fract_x
  _atom_site_fract_y
  _atom_site_fract_z
  _atom_site_occupancy
  Ta  Ta1       1.0  0.24999999014360832  0.2499999242453173  0.25000007893428133  1.0000
  Ta  Ta2       1.0  0.7500000760950124  0.7500000203750377  0.7499999693691165  1.0000
  Cr  Cr1       1.0  4.764824131038011e-08  0.9999999999999991  2.7756612853732618e-08  1.0000
  O   O1        1.0  0.26534746872458076  0.26534753959916935  0.7346524924764182  1.0000
  O   O2        1.0  0.7346524974279388  0.7346524479789874  0.2653475555059183  1.0000
  O   O3        1.0  0.7346524541008511  0.26534752429645825  0.26534748297975885  1.0000
  O   O4        1.0  0.2653474964565383  0.7346525315087946  0.7346524355251285  1.0000
  O   O5        1.0  0.26534749541767944  0.7346525174310723  0.2653474855590662  1.0000
  O   O6        1.0  0.7346524775930411  0.2653474853086617  0.7346524936429604  1.0000
