data_image0
_chemical_formula_structural       Ta2CoS6
_chemical_formula_sum              "Ta2 Co1 S6"
_cell_length_a       5.821604930795016
_cell_length_b       5.821605144209092
_cell_length_c       5.821605598935146
_cell_angle_alpha    59.99999619054541
_cell_angle_beta     59.99999784258198
_cell_angle_gamma    60.00000322415377

_space_group_name_H-M_alt    "P 1"
_space_group_IT_number       1

loop_
  _space_group_symop_operation_xyz
  'x, y, z'

loop_
  _atom_site_type_symbol
  _atom_site_label
  _atom_site_symmetry_multiplicity
  _atom_site_fract_x
  _atom_site_fract_y
  _atom_site_fract_z
  _atom_site_occupancy
  Ta  Ta1       1.0  0.24999592946633836  0.25000735797349355  0.24999874364402402  1.0000
  Ta  Ta2       1.0  0.7500004209424063  0.7499904896852363  0.7500031078390756  1.0000
  Co  Co1       1.0  4.4530160161033423e-07  1.0918683009050575e-06  0.9999993980357441  1.0000
  S   S1        1.0  0.26174337968589617  0.26174376708471525  0.7382561012451485  1.0000
  S   S2        1.0  0.7382570330806365  0.7382563589814415  0.261743443878178  1.0000
  S   S3        1.0  0.738257649400457  0.2617451572932147  0.2617418294714682  1.0000
  S   S4        1.0  0.26174456052797235  0.7382553432480781  0.7382575677189503  1.0000
  S   S5        1.0  0.2617432239832605  0.7382554495944026  0.26174384620497315  1.0000
  S   S6        1.0  0.7382573051618847  0.2617449878330336  0.7382559316605912  1.0000
