data_image0
_chemical_formula_structural       Ta2CO6
_chemical_formula_sum              "Ta2 C1 O6"
_cell_length_a       4.68938387952864
_cell_length_b       4.689383893022827
_cell_length_c       4.689383869585771
_cell_angle_alpha    60.00000002456094
_cell_angle_beta     60.00000050884523
_cell_angle_gamma    60.00000004194914

_space_group_name_H-M_alt    "P 1"
_space_group_IT_number       1

loop_
  _space_group_symop_operation_xyz
  'x, y, z'

loop_
  _atom_site_type_symbol
  _atom_site_label
  _atom_site_symmetry_multiplicity
  _atom_site_fract_x
  _atom_site_fract_y
  _atom_site_fract_z
  _atom_site_occupancy
  Ta  Ta1       1.0  0.25000001386366233  0.2500000089329647  0.25000006491167925  1.0000
  Ta  Ta2       1.0  0.7499999625219882  0.7499999980697616  0.7499999671472306  1.0000
  C   C1        1.0  0.9999999604526874  7.83521848901346e-09  0.9999999497492814  1.0000
  O   O1        1.0  0.22931492029977263  0.22931489278650533  0.7706850663393437  1.0000
  O   O2        1.0  0.7706851257534921  0.7706851194396999  0.22931488775696995  1.0000
  O   O3        1.0  0.7706850890983166  0.2293148852014836  0.22931490068002708  1.0000
  O   O4        1.0  0.22931489785803183  0.7706851270247216  0.7706850893621735  1.0000
  O   O5        1.0  0.22931492024822867  0.7706850896100023  0.2293149082521392  1.0000
  O   O6        1.0  0.7706851230951846  0.22931484948749914  0.770685156267647  1.0000
