data_image0
_chemical_formula_structural       Ta2CoO6
_chemical_formula_sum              "Ta2 Co1 O6"
_cell_length_a       4.807940781450161
_cell_length_b       4.80794089995296
_cell_length_c       4.807940829103572
_cell_angle_alpha    59.999999022681926
_cell_angle_beta     59.999999163955806
_cell_angle_gamma    59.99999970156599

_space_group_name_H-M_alt    "P 1"
_space_group_IT_number       1

loop_
  _space_group_symop_operation_xyz
  'x, y, z'

loop_
  _atom_site_type_symbol
  _atom_site_label
  _atom_site_symmetry_multiplicity
  _atom_site_fract_x
  _atom_site_fract_y
  _atom_site_fract_z
  _atom_site_occupancy
  Ta  Ta1       1.0  0.25000006552624854  0.250000061361403  0.24999985284588405  1.0000
  Ta  Ta2       1.0  0.7499999089131318  0.7500002401256318  0.750000042490718  1.0000
  Co  Co1       1.0  0.9999999659398039  2.2926038717016227e-08  7.64697106186468e-09  1.0000
  O   O1        1.0  0.26284496166330323  0.262844670332232  0.7371550804346654  1.0000
  O   O2        1.0  0.7371550590694952  0.7371552184861077  0.2628448774558156  1.0000
  O   O3        1.0  0.7371553470988642  0.2628448440665075  0.2628447922323027  1.0000
  O   O4        1.0  0.2628447948320715  0.737155070225206  0.7371552587138208  1.0000
  O   O5        1.0  0.262844817378166  0.7371551179477648  0.26284483976697376  1.0000
  O   O6        1.0  0.7371550920294809  0.2628447734179116  0.737155236989082  1.0000
