data_image0
_chemical_formula_structural       Ta2CrS6
_chemical_formula_sum              "Ta2 Cr1 S6"
_cell_length_a       6.000196645107789
_cell_length_b       6.000196890839175
_cell_length_c       6.000196662613091
_cell_angle_alpha    59.999999919032234
_cell_angle_beta     60.000000674889705
_cell_angle_gamma    59.99999942405517

_space_group_name_H-M_alt    "P 1"
_space_group_IT_number       1

loop_
  _space_group_symop_operation_xyz
  'x, y, z'

loop_
  _atom_site_type_symbol
  _atom_site_label
  _atom_site_symmetry_multiplicity
  _atom_site_fract_x
  _atom_site_fract_y
  _atom_site_fract_z
  _atom_site_occupancy
  Ta  Ta1       1.0  0.2500002564104895  0.2500000199491078  0.2499999371938108  1.0000
  Ta  Ta2       1.0  0.7499996771682274  0.7499996699830216  0.7500002058898972  1.0000
  Cr  Cr1       1.0  0.999999835879161  0.9999999612176852  2.2478086728029887e-07  1.0000
  S   S1        1.0  0.26636140778048556  0.2663615243296269  0.7336385273666005  1.0000
  S   S2        1.0  0.733638644499355  0.7336388371488998  0.26636138058809683  1.0000
  S   S3        1.0  0.7336386083681379  0.2663614256020447  0.2663611238320201  1.0000
  S   S4        1.0  0.2663615496659444  0.7336385031474981  0.7336386109544212  1.0000
  S   S5        1.0  0.2663614135572697  0.7336385830446694  0.2663612450590617  1.0000
  S   S6        1.0  0.7336385807994561  0.26636151920470186  0.7336387131419903  1.0000
