data_image0
_chemical_formula_structural       Ta2FeTe6
_chemical_formula_sum              "Ta2 Fe1 Te6"
_cell_length_a       6.787553548605077
_cell_length_b       6.787553580856151
_cell_length_c       6.787553390252643
_cell_angle_alpha    60.000000621292116
_cell_angle_beta     60.00000077930023
_cell_angle_gamma    60.000001530183226

_space_group_name_H-M_alt    "P 1"
_space_group_IT_number       1

loop_
  _space_group_symop_operation_xyz
  'x, y, z'

loop_
  _atom_site_type_symbol
  _atom_site_label
  _atom_site_symmetry_multiplicity
  _atom_site_fract_x
  _atom_site_fract_y
  _atom_site_fract_z
  _atom_site_occupancy
  Ta  Ta1       1.0  0.2500001087240925  0.24999979406671385  0.24999996477843514  1.0000
  Ta  Ta2       1.0  0.7499999178213783  0.7500000101306656  0.7499997771790671  1.0000
  Fe  Fe1       1.0  0.999999982489701  0.9999999963912035  3.855196105642453e-08  1.0000
  Te  Te1       1.0  0.25168033688992  0.25168041410418823  0.7483196238949598  1.0000
  Te  Te2       1.0  0.7483197226269153  0.7483196535353084  0.2516804044748502  1.0000
  Te  Te3       1.0  0.7483196517395846  0.25168031421009635  0.25168042423128056  1.0000
  Te  Te4       1.0  0.25168036719018344  0.7483196812534769  0.7483196649398793  1.0000
  Te  Te5       1.0  0.25168032141028995  0.7483197317183731  0.2516803927183488  1.0000
  Te  Te6       1.0  0.7483195888635574  0.2516804008794522  0.7483197146259131  1.0000
