data_image0
_chemical_formula_structural       Ta2FeS6
_chemical_formula_sum              "Ta2 Fe1 S6"
_cell_length_a       5.786936602189573
_cell_length_b       5.786936755552206
_cell_length_c       5.786935966666498
_cell_angle_alpha    60.000000548568224
_cell_angle_beta     60.00000129683776
_cell_angle_gamma    60.000001527465976

_space_group_name_H-M_alt    "P 1"
_space_group_IT_number       1

loop_
  _space_group_symop_operation_xyz
  'x, y, z'

loop_
  _atom_site_type_symbol
  _atom_site_label
  _atom_site_symmetry_multiplicity
  _atom_site_fract_x
  _atom_site_fract_y
  _atom_site_fract_z
  _atom_site_occupancy
  Ta  Ta1       1.0  0.24999992669859258  0.2500004977868513  0.2500001934673539  1.0000
  Ta  Ta2       1.0  0.7500000178725925  0.7499999060637713  0.7499996290856897  1.0000
  Fe  Fe1       1.0  1.0608263458805767e-07  0.99999963386354  0.99999982416558  1.0000
  S   S1        1.0  0.26488595317723646  0.26488655387472004  0.7351135685535216  1.0000
  S   S2        1.0  0.7351138812517762  0.7351135219345488  0.26488662515795275  1.0000
  S   S3        1.0  0.7351137157679015  0.26488615496712  0.2648863852187333  1.0000
  S   S4        1.0  0.2648862268565777  0.7351137578796738  0.7351138358762483  1.0000
  S   S5        1.0  0.26488648354397776  0.735113817170987  0.2648860780526493  1.0000
  S   S6        1.0  0.7351136067956696  0.26488619726280954  0.7351139112533701  1.0000
