data_image0
_chemical_formula_structural       Ta2FeO6
_chemical_formula_sum              "Ta2 Fe1 O6"
_cell_length_a       4.841280563427962
_cell_length_b       4.841280520467089
_cell_length_c       4.841280712959637
_cell_angle_alpha    59.999999707611174
_cell_angle_beta     60.00000023066112
_cell_angle_gamma    60.00000048637632

_space_group_name_H-M_alt    "P 1"
_space_group_IT_number       1

loop_
  _space_group_symop_operation_xyz
  'x, y, z'

loop_
  _atom_site_type_symbol
  _atom_site_label
  _atom_site_symmetry_multiplicity
  _atom_site_fract_x
  _atom_site_fract_y
  _atom_site_fract_z
  _atom_site_occupancy
  Ta  Ta1       1.0  0.24999998531303486  0.25000023923986214  0.24999963661893843  1.0000
  Ta  Ta2       1.0  0.7499999965236487  0.7499999233638677  0.7500003298548085  1.0000
  Fe  Fe1       1.0  0.9999999795467458  0.9999999468742988  1.0701882753480465e-07  1.0000
  O   O1        1.0  0.2607610968869352  0.26076111162626275  0.7392390793204628  1.0000
  O   O2        1.0  0.7392389468471079  0.7392387651105973  0.26076091444970334  1.0000
  O   O3        1.0  0.7392388059770003  0.2607610406389975  0.26076118351514044  1.0000
  O   O4        1.0  0.2607611871859608  0.7392389448790602  0.739238766690984  1.0000
  O   O5        1.0  0.26076106780643243  0.7392388555821305  0.26076110298756455  1.0000
  O   O6        1.0  0.7392389215494248  0.26076116282326645  0.7392388719242561  1.0000
