data_image0
_chemical_formula_structural       Ta2FeSe6
_chemical_formula_sum              "Ta2 Fe1 Se6"
_cell_length_a       6.49073393745267
_cell_length_b       6.490733907531791
_cell_length_c       6.490733863985838
_cell_angle_alpha    60.00000013461783
_cell_angle_beta     59.999999854303745
_cell_angle_gamma    59.999999636572944

_space_group_name_H-M_alt    "P 1"
_space_group_IT_number       1

loop_
  _space_group_symop_operation_xyz
  'x, y, z'

loop_
  _atom_site_type_symbol
  _atom_site_label
  _atom_site_symmetry_multiplicity
  _atom_site_fract_x
  _atom_site_fract_y
  _atom_site_fract_z
  _atom_site_occupancy
  Ta  Ta1       1.0  0.24999998349239658  0.24999947864115968  0.25000008876221225  1.0000
  Ta  Ta2       1.0  0.7500000119057636  0.7500000662161151  0.7500001291286359  1.0000
  Fe  Fe1       1.0  1.9245239257232754e-08  1.698221492422618e-08  2.3484034440421545e-08  1.0000
  Se  Se1       1.0  0.25219302182928177  0.25219307371348865  0.747806978188647  1.0000
  Se  Se2       1.0  0.7478069090837453  0.7478070541998333  0.2521929865793754  1.0000
  Se  Se3       1.0  0.7478070242132112  0.25219302066984195  0.25219308116578404  1.0000
  Se  Se4       1.0  0.25219301972943037  0.7478070883743516  0.7478067918429172  1.0000
  Se  Se5       1.0  0.25219308239747984  0.7478071803495571  0.2521929800175359  1.0000
  Se  Se6       1.0  0.7478069318756133  0.25219302304027547  0.7478069423079856  1.0000
