data_image0
_chemical_formula_structural       Ta2GeTe6
_chemical_formula_sum              "Ta2 Ge1 Te6"
_cell_length_a       7.053547990590869
_cell_length_b       7.053548165552785
_cell_length_c       7.053548116508291
_cell_angle_alpha    59.99999918204339
_cell_angle_beta     59.99999916839969
_cell_angle_gamma    60.00000020079178

_space_group_name_H-M_alt    "P 1"
_space_group_IT_number       1

loop_
  _space_group_symop_operation_xyz
  'x, y, z'

loop_
  _atom_site_type_symbol
  _atom_site_label
  _atom_site_symmetry_multiplicity
  _atom_site_fract_x
  _atom_site_fract_y
  _atom_site_fract_z
  _atom_site_occupancy
  Ta  Ta1       1.0  0.2500000401371196  0.2500000658642174  0.24999988952004715  1.0000
  Ta  Ta2       1.0  0.7500000325612506  0.7499999110944239  0.7499999365447059  1.0000
  Ge  Ge1       1.0  3.4576641554293365e-08  0.9999999895818826  0.9999999964270951  1.0000
  Te  Te1       1.0  0.26317485287621345  0.2631749800650467  0.7368250772073948  1.0000
  Te  Te2       1.0  0.7368250909577091  0.7368250298842972  0.26317496408592284  1.0000
  Te  Te3       1.0  0.7368250674682753  0.26317486814255653  0.2631749658468255  1.0000
  Te  Te4       1.0  0.2631749408063899  0.7368251105524356  0.7368250517646661  1.0000
  Te  Te5       1.0  0.2631749273444064  0.7368250758118061  0.26317494052758245  1.0000
  Te  Te6       1.0  0.7368250021192128  0.26317497233730025  0.7368251795854825  1.0000
