data_image0
_chemical_formula_structural       Ta2GeSe6
_chemical_formula_sum              "Ta2 Ge1 Se6"
_cell_length_a       6.542933441898317
_cell_length_b       6.542933429752802
_cell_length_c       6.542933326453116
_cell_angle_alpha    60.00000067022084
_cell_angle_beta     60.00000093160734
_cell_angle_gamma    59.99999990374233

_space_group_name_H-M_alt    "P 1"
_space_group_IT_number       1

loop_
  _space_group_symop_operation_xyz
  'x, y, z'

loop_
  _atom_site_type_symbol
  _atom_site_label
  _atom_site_symmetry_multiplicity
  _atom_site_fract_x
  _atom_site_fract_y
  _atom_site_fract_z
  _atom_site_occupancy
  Ta  Ta1       1.0  0.24999999027581662  0.2500000886192291  0.24999994571261502  1.0000
  Ta  Ta2       1.0  0.7499998313039098  0.7500000861592266  0.7499998301568983  1.0000
  Ge  Ge1       1.0  0.9999999947942688  2.6206025662810565e-08  0.9999999314219263  1.0000
  Se  Se1       1.0  0.25944137238230586  0.25944127557466434  0.7405586760075653  1.0000
  Se  Se2       1.0  0.7405586643111133  0.7405586932993029  0.25944145595183665  1.0000
  Se  Se3       1.0  0.7405587560833748  0.2594412331463224  0.25944136856546746  1.0000
  Se  Se4       1.0  0.25944137493084857  0.7405586327754006  0.7405587860500524  1.0000
  Se  Se5       1.0  0.2594413075577659  0.740558686884898  0.2594412796433207  1.0000
  Se  Se6       1.0  0.7405587108636442  0.2594412838609282  0.7405587183780731  1.0000
