data_image0
_chemical_formula_structural       Ta2IrO6
_chemical_formula_sum              "Ta2 Ir1 O6"
_cell_length_a       4.966871094561672
_cell_length_b       4.9668712294278174
_cell_length_c       4.966871187079981
_cell_angle_alpha    59.99999994148139
_cell_angle_beta     60.00000004795173
_cell_angle_gamma    60.000000056518836

_space_group_name_H-M_alt    "P 1"
_space_group_IT_number       1

loop_
  _space_group_symop_operation_xyz
  'x, y, z'

loop_
  _atom_site_type_symbol
  _atom_site_label
  _atom_site_symmetry_multiplicity
  _atom_site_fract_x
  _atom_site_fract_y
  _atom_site_fract_z
  _atom_site_occupancy
  Ta  Ta1       1.0  0.2500000507194359  0.25000004866222403  0.24999988980760143  1.0000
  Ta  Ta2       1.0  0.7500001107632386  0.7499998377582077  0.7499999992617449  1.0000
  Ir  Ir1       1.0  0.9999999735810096  4.438489910738479e-08  0.9999999507502472  1.0000
  O   O1        1.0  0.26951159585002543  0.26951164934675914  0.7304883665685299  1.0000
  O   O2        1.0  0.7304883834033519  0.7304883652967139  0.26951161393082046  1.0000
  O   O3        1.0  0.730488396197602  0.26951161928465117  0.2695116205667559  1.0000
  O   O4        1.0  0.26951156612541866  0.730488348508095  0.7304884341032742  1.0000
  O   O5        1.0  0.2695115571057662  0.7304884081586629  0.26951167640227985  1.0000
  O   O6        1.0  0.7304883559248959  0.2695116656646744  0.7304884404989295  1.0000
