data_image0
_chemical_formula_structural       Ta2IrS6
_chemical_formula_sum              "Ta2 Ir1 S6"
_cell_length_a       6.323402372144327
_cell_length_b       6.323402645699669
_cell_length_c       6.323402397536732
_cell_angle_alpha    60.00000334742816
_cell_angle_beta     59.99999776118136
_cell_angle_gamma    59.99999921037783

_space_group_name_H-M_alt    "P 1"
_space_group_IT_number       1

loop_
  _space_group_symop_operation_xyz
  'x, y, z'

loop_
  _atom_site_type_symbol
  _atom_site_label
  _atom_site_symmetry_multiplicity
  _atom_site_fract_x
  _atom_site_fract_y
  _atom_site_fract_z
  _atom_site_occupancy
  Ta  Ta1       1.0  0.25000014382683056  0.25000183293912404  0.249999030681682  1.0000
  Ta  Ta2       1.0  0.7500016897541667  0.749998053586674  0.7499998866336977  1.0000
  Ir  Ir1       1.0  9.624712007505923e-08  0.9999999961263075  0.999999945906149  1.0000
  S   S1        1.0  0.26120752022520033  0.26120809596771094  0.7387920925511183  1.0000
  S   S2        1.0  0.7387922180503341  0.7387920559058688  0.26120788997871497  1.0000
  S   S3        1.0  0.7387922638781688  0.26120806558255855  0.26120778134323336  1.0000
  S   S4        1.0  0.2612070663725435  0.7387920010698718  0.7387924462281639  1.0000
  S   S5        1.0  0.26120751411650467  0.7387912908475933  0.261208142673716  1.0000
  S   S6        1.0  0.7387914551822455  0.26120864797311966  0.738792806880513  1.0000
