data_image0
_chemical_formula_structural       Ta2IrSe6
_chemical_formula_sum              "Ta2 Ir1 Se6"
_cell_length_a       6.658893538981624
_cell_length_b       6.65889356436924
_cell_length_c       6.658893664663244
_cell_angle_alpha    59.99999962840881
_cell_angle_beta     59.99999950940749
_cell_angle_gamma    59.99999936530757

_space_group_name_H-M_alt    "P 1"
_space_group_IT_number       1

loop_
  _space_group_symop_operation_xyz
  'x, y, z'

loop_
  _atom_site_type_symbol
  _atom_site_label
  _atom_site_symmetry_multiplicity
  _atom_site_fract_x
  _atom_site_fract_y
  _atom_site_fract_z
  _atom_site_occupancy
  Ta  Ta1       1.0  0.2500000844044408  0.24999996971294916  0.2500001803247935  1.0000
  Ta  Ta2       1.0  0.7500001959167321  0.7500000342086518  0.7500000070047016  1.0000
  Ir  Ir1       1.0  0.9999999750918472  3.3106713069130115e-08  0.9999999778797082  1.0000
  Se  Se1       1.0  0.25704481022742487  0.2570449609497745  0.7429551352414817  1.0000
  Se  Se2       1.0  0.7429551614288081  0.7429550429718276  0.25704481596523115  1.0000
  Se  Se3       1.0  0.7429549698107618  0.2570448369628287  0.25704495128493116  1.0000
  Se  Se4       1.0  0.2570448209579172  0.7429552258151528  0.7429549738358124  1.0000
  Se  Se5       1.0  0.2570448805361892  0.7429550451154906  0.2570448662899813  1.0000
  Se  Se6       1.0  0.7429551021917102  0.25704486316449615  0.7429551001701885  1.0000
