data_image0
_chemical_formula_structural       Ta2MnS6
_chemical_formula_sum              "Ta2 Mn1 S6"
_cell_length_a       5.944390566357719
_cell_length_b       5.944390267821082
_cell_length_c       5.944390692187685
_cell_angle_alpha    59.99999614234124
_cell_angle_beta     59.99999727080563
_cell_angle_gamma    59.999999379439615

_space_group_name_H-M_alt    "P 1"
_space_group_IT_number       1

loop_
  _space_group_symop_operation_xyz
  'x, y, z'

loop_
  _atom_site_type_symbol
  _atom_site_label
  _atom_site_symmetry_multiplicity
  _atom_site_fract_x
  _atom_site_fract_y
  _atom_site_fract_z
  _atom_site_occupancy
  Ta  Ta1       1.0  0.24999994055122682  0.2499994798468413  0.25000013744142435  1.0000
  Ta  Ta2       1.0  0.750000319761959  0.7500005699293357  0.7499991485434423  1.0000
  Mn  Mn1       1.0  0.9999999559283073  1.3804259920099852e-07  8.529066549623137e-09  1.0000
  S   S1        1.0  0.2665311264933501  0.2665309754645889  0.7334690845443504  1.0000
  S   S2        1.0  0.7334689099437193  0.7334689300879599  0.2665313073678883  1.0000
  S   S3        1.0  0.733468946649436  0.26653090482991815  0.26653119934567165  1.0000
  S   S4        1.0  0.2665309815965485  0.7334689698175706  0.7334689492146161  1.0000
  S   S5        1.0  0.2665308168912149  0.7334690380274507  0.2665312819370404  1.0000
  S   S6        1.0  0.7334689482213536  0.2665309705419587  0.7334689771177136  1.0000
