data_image0
_chemical_formula_structural       Ta2MnSe6
_chemical_formula_sum              "Ta2 Mn1 Se6"
_cell_length_a       6.470233812632267
_cell_length_b       6.4702336941429115
_cell_length_c       6.470233749882708
_cell_angle_alpha    60.00000011954782
_cell_angle_beta     60.00000090192851
_cell_angle_gamma    60.00000117122855

_space_group_name_H-M_alt    "P 1"
_space_group_IT_number       1

loop_
  _space_group_symop_operation_xyz
  'x, y, z'

loop_
  _atom_site_type_symbol
  _atom_site_label
  _atom_site_symmetry_multiplicity
  _atom_site_fract_x
  _atom_site_fract_y
  _atom_site_fract_z
  _atom_site_occupancy
  Ta  Ta1       1.0  0.2499999997157929  0.25000036521361724  0.24999967644422208  1.0000
  Ta  Ta2       1.0  0.7500001067333375  0.7499998520113093  0.7499999621017098  1.0000
  Mn  Mn1       1.0  0.9999999640011062  0.9999999848568694  0.9999999622039041  1.0000
  Se  Se1       1.0  0.25612123087127536  0.2561212063598858  0.7438787384897464  1.0000
  Se  Se2       1.0  0.7438788097135273  0.7438787212526805  0.25612130807987155  1.0000
  Se  Se3       1.0  0.7438789111722295  0.2561211503008722  0.25612121392371556  1.0000
  Se  Se4       1.0  0.25612116846121535  0.7438786012728096  0.7438789737813664  1.0000
  Se  Se5       1.0  0.2561211978787717  0.7438788310398552  0.2561211677284269  1.0000
  Se  Se6       1.0  0.7438786290693624  0.25612128775472354  0.7438789843464111  1.0000
