data_image0
_chemical_formula_structural       Ta2MoO6
_chemical_formula_sum              "Ta2 Mo1 O6"
_cell_length_a       5.005832067593594
_cell_length_b       5.0058318589716535
_cell_length_c       5.005832006867566
_cell_angle_alpha    59.999999414401536
_cell_angle_beta     60.0000004257413
_cell_angle_gamma    59.99999898059105

_space_group_name_H-M_alt    "P 1"
_space_group_IT_number       1

loop_
  _space_group_symop_operation_xyz
  'x, y, z'

loop_
  _atom_site_type_symbol
  _atom_site_label
  _atom_site_symmetry_multiplicity
  _atom_site_fract_x
  _atom_site_fract_y
  _atom_site_fract_z
  _atom_site_occupancy
  Ta  Ta1       1.0  0.25000001739524874  0.24999985597080746  0.24999992158277512  1.0000
  Ta  Ta2       1.0  0.7499998951092338  0.750000184464718  0.7499998866003407  1.0000
  Mo  Mo1       1.0  0.9999999740904905  0.9999999877668195  1.3078335192874755e-08  1.0000
  O   O1        1.0  0.2673756502648386  0.2673755886956052  0.732624415946899  1.0000
  O   O2        1.0  0.7326243350069992  0.7326243856807471  0.267375678544263  1.0000
  O   O3        1.0  0.7326243604754787  0.2673756164727407  0.2673756544500062  1.0000
  O   O4        1.0  0.26737567489237846  0.7326243114175258  0.7326244302455095  1.0000
  O   O5        1.0  0.2673756513335097  0.7326244855522386  0.2673756636701308  1.0000
  O   O6        1.0  0.7326244173276577  0.2673755915828294  0.7326243697097277  1.0000
