data_image0
_chemical_formula_structural       Ta2MoSe6
_chemical_formula_sum              "Ta2 Mo1 Se6"
_cell_length_a       6.597031874775238
_cell_length_b       6.597031563857232
_cell_length_c       6.597031856573322
_cell_angle_alpha    60.000000404051534
_cell_angle_beta     60.00000067941353
_cell_angle_gamma    60.00000014163486

_space_group_name_H-M_alt    "P 1"
_space_group_IT_number       1

loop_
  _space_group_symop_operation_xyz
  'x, y, z'

loop_
  _atom_site_type_symbol
  _atom_site_label
  _atom_site_symmetry_multiplicity
  _atom_site_fract_x
  _atom_site_fract_y
  _atom_site_fract_z
  _atom_site_occupancy
  Ta  Ta1       1.0  0.2500000521295361  0.2499998164296444  0.2500001251979234  1.0000
  Ta  Ta2       1.0  0.749999984139757  0.7499999765374845  0.7499994674623182  1.0000
  Mo  Mo1       1.0  0.9999999598120728  5.7551780517939644e-08  2.6182237899002642e-08  1.0000
  Se  Se1       1.0  0.2620017304108846  0.26200184503809765  0.737998305584198  1.0000
  Se  Se2       1.0  0.7379981954234485  0.7379982319749261  0.2620018914905252  1.0000
  Se  Se3       1.0  0.7379981587010358  0.2620016692744102  0.2620019597916938  1.0000
  Se  Se4       1.0  0.2620019585416029  0.7379982220877106  0.7379981995401623  1.0000
  Se  Se5       1.0  0.2620017271416732  0.7379982724534643  0.26200183009304334  1.0000
  Se  Se6       1.0  0.7379982606246895  0.26200189181548234  0.7379981680893817  1.0000
