data_image0
_chemical_formula_structural       Ta2MnTe6
_chemical_formula_sum              "Ta2 Mn1 Te6"
_cell_length_a       6.861306951126462
_cell_length_b       6.861306929809406
_cell_length_c       6.861306947298602
_cell_angle_alpha    59.99999964917046
_cell_angle_beta     59.999999942415606
_cell_angle_gamma    59.99999921405131

_space_group_name_H-M_alt    "P 1"
_space_group_IT_number       1

loop_
  _space_group_symop_operation_xyz
  'x, y, z'

loop_
  _atom_site_type_symbol
  _atom_site_label
  _atom_site_symmetry_multiplicity
  _atom_site_fract_x
  _atom_site_fract_y
  _atom_site_fract_z
  _atom_site_occupancy
  Ta  Ta1       1.0  0.250000032586756  0.24999996435643365  0.25000001929616084  1.0000
  Ta  Ta2       1.0  0.7499999992643717  0.7500000572895152  0.749999981302875  1.0000
  Mn  Mn1       1.0  1.5945419698006814e-08  0.9999999875049838  0.9999999720407293  1.0000
  Te  Te1       1.0  0.2543230476616004  0.25432302438272225  0.7456769593408118  1.0000
  Te  Te2       1.0  0.7456769732082857  0.7456769847682109  0.2543230165601456  1.0000
  Te  Te3       1.0  0.7456769870820725  0.2543229613032474  0.25432304958386315  1.0000
  Te  Te4       1.0  0.2543230052978379  0.7456770121476394  0.7456769729865883  1.0000
  Te  Te5       1.0  0.2543229761240617  0.7456770099209453  0.2543230125573424  1.0000
  Te  Te6       1.0  0.7456769639658414  0.254322999229988  0.7456770183080894  1.0000
