data_image0
_chemical_formula_structural       Ta2NbS6
_chemical_formula_sum              "Ta2 Nb1 S6"
_cell_length_a       6.115251039262384
_cell_length_b       6.115250726830699
_cell_length_c       6.1152510943481495
_cell_angle_alpha    59.99999894946113
_cell_angle_beta     59.999998810519934
_cell_angle_gamma    59.99999905657635

_space_group_name_H-M_alt    "P 1"
_space_group_IT_number       1

loop_
  _space_group_symop_operation_xyz
  'x, y, z'

loop_
  _atom_site_type_symbol
  _atom_site_label
  _atom_site_symmetry_multiplicity
  _atom_site_fract_x
  _atom_site_fract_y
  _atom_site_fract_z
  _atom_site_occupancy
  Ta  Ta1       1.0  0.25000027330858643  0.25000016509133843  0.25000021959762886  1.0000
  Ta  Ta2       1.0  0.7499998736245755  0.7500000486559728  0.7499994207448567  1.0000
  Nb  Nb1       1.0  0.9999999764445586  1.4019399348223025e-08  1.4579556248928113e-08  1.0000
  S   S1        1.0  0.2727975221718244  0.2727974580505549  0.7272024847437836  1.0000
  S   S2        1.0  0.727202443743282  0.7272025113586558  0.27279765935231715  1.0000
  S   S3        1.0  0.7272024429947888  0.2727974440712765  0.27279758496510864  1.0000
  S   S4        1.0  0.27279754264371453  0.7272024151855101  0.7272025650993649  1.0000
  S   S5        1.0  0.27279749935261727  0.7272023307173346  0.27279758213338096  1.0000
  S   S6        1.0  0.7272024408145018  0.2727976026419903  0.7272024996520741  1.0000
