data_image0
_chemical_formula_structural       Ta2NiTe6
_chemical_formula_sum              "Ta2 Ni1 Te6"
_cell_length_a       6.833394287653332
_cell_length_b       6.833394305899296
_cell_length_c       6.833394241479331
_cell_angle_alpha    59.999998081357084
_cell_angle_beta     59.999998832887655
_cell_angle_gamma    59.99999891240841

_space_group_name_H-M_alt    "P 1"
_space_group_IT_number       1

loop_
  _space_group_symop_operation_xyz
  'x, y, z'

loop_
  _atom_site_type_symbol
  _atom_site_label
  _atom_site_symmetry_multiplicity
  _atom_site_fract_x
  _atom_site_fract_y
  _atom_site_fract_z
  _atom_site_occupancy
  Ta  Ta1       1.0  0.24999992491539172  0.25000015242580925  0.2499999368186679  1.0000
  Ta  Ta2       1.0  0.7499999363103655  0.749999871197415  0.7500001251520343  1.0000
  Ni  Ni1       1.0  1.2323462503988687e-08  3.5845872547723924e-09  0.9999999905825734  1.0000
  Te  Te1       1.0  0.25623341286542206  0.25623347433234606  0.7437665389285626  1.0000
  Te  Te2       1.0  0.7437666162822107  0.7437664865606025  0.256233430934496  1.0000
  Te  Te3       1.0  0.7437665621248118  0.2562334793371868  0.25623338897061104  1.0000
  Te  Te4       1.0  0.2562334760340315  0.7437665407014503  0.7437665848624383  1.0000
  Te  Te5       1.0  0.2562334864898832  0.7437665146211383  0.25623343385625136  1.0000
  Te  Te6       1.0  0.7437665746436812  0.2562334821176812  0.7437665635537716  1.0000
