data_image0
_chemical_formula_structural       Ta2NbSe6
_chemical_formula_sum              "Ta2 Nb1 Se6"
_cell_length_a       6.644325440826868
_cell_length_b       6.644325171367728
_cell_length_c       6.64432589781586
_cell_angle_alpha    60.00000218842794
_cell_angle_beta     60.000002828464474
_cell_angle_gamma    60.00000355609147

_space_group_name_H-M_alt    "P 1"
_space_group_IT_number       1

loop_
  _space_group_symop_operation_xyz
  'x, y, z'

loop_
  _atom_site_type_symbol
  _atom_site_label
  _atom_site_symmetry_multiplicity
  _atom_site_fract_x
  _atom_site_fract_y
  _atom_site_fract_z
  _atom_site_occupancy
  Ta  Ta1       1.0  0.25000010563953284  0.25000001203398897  0.24999898366009782  1.0000
  Ta  Ta2       1.0  0.7499996733934856  0.7499991513207067  0.7500008230483979  1.0000
  Nb  Nb1       1.0  0.9999998885982605  1.3087391861070253e-07  1.7839435870890822e-07  1.0000
  Se  Se1       1.0  0.261651033618284  0.26165135489247154  0.7383484905149645  1.0000
  Se  Se2       1.0  0.7383489996560381  0.7383486932436262  0.26165094384293536  1.0000
  Se  Se3       1.0  0.7383489879844188  0.2616515756937166  0.2616510042842807  1.0000
  Se  Se4       1.0  0.2616515610382279  0.7383482807398101  0.7383492734198617  1.0000
  Se  Se5       1.0  0.26165123857588274  0.7383492944938144  0.2616513637606585  1.0000
  Se  Se6       1.0  0.7383484590835093  0.2616514633107267  0.7383489792422252  1.0000
