data_image0
_chemical_formula_structural       Ta2NbTe6
_chemical_formula_sum              "Ta2 Nb1 Te6"
_cell_length_a       7.148727003405113
_cell_length_b       7.148726989745361
_cell_length_c       7.1487269789026895
_cell_angle_alpha    60.00000063872739
_cell_angle_beta     59.99999938355688
_cell_angle_gamma    59.99999990196651

_space_group_name_H-M_alt    "P 1"
_space_group_IT_number       1

loop_
  _space_group_symop_operation_xyz
  'x, y, z'

loop_
  _atom_site_type_symbol
  _atom_site_label
  _atom_site_symmetry_multiplicity
  _atom_site_fract_x
  _atom_site_fract_y
  _atom_site_fract_z
  _atom_site_occupancy
  Ta  Ta1       1.0  0.25000008200746887  0.24999993605699125  0.2499999572051946  1.0000
  Ta  Ta2       1.0  0.7499999229352224  0.750000036031219  0.750000047923298  1.0000
  Nb  Nb1       1.0  3.907683693652706e-08  0.999999955455892  0.9999999845485792  1.0000
  Te  Te1       1.0  0.2636081065447752  0.26360810050528477  0.7363918809596715  1.0000
  Te  Te2       1.0  0.7363918515387574  0.7363919007079188  0.2636080994634934  1.0000
  Te  Te3       1.0  0.7363918762567823  0.2636081293105689  0.2636080893222803  1.0000
  Te  Te4       1.0  0.2636081033793108  0.7363918993143937  0.7363919491509016  1.0000
  Te  Te5       1.0  0.26360811809822526  0.7363919479664086  0.26360810015440134  1.0000
  Te  Te6       1.0  0.7363919075151935  0.26360809779090266  0.7363918829834856  1.0000
