data_image0
_chemical_formula_structural       Ta2OsO6
_chemical_formula_sum              "Ta2 Os1 O6"
_cell_length_a       4.968203014850146
_cell_length_b       4.968202772722119
_cell_length_c       4.9682029750151235
_cell_angle_alpha    59.99999875786838
_cell_angle_beta     59.99999972584726
_cell_angle_gamma    59.99999938587423

_space_group_name_H-M_alt    "P 1"
_space_group_IT_number       1

loop_
  _space_group_symop_operation_xyz
  'x, y, z'

loop_
  _atom_site_type_symbol
  _atom_site_label
  _atom_site_symmetry_multiplicity
  _atom_site_fract_x
  _atom_site_fract_y
  _atom_site_fract_z
  _atom_site_occupancy
  Ta  Ta1       1.0  0.24999992775710897  0.24999998494079162  0.250000005088417  1.0000
  Ta  Ta2       1.0  0.7499999482882106  0.7499999548223769  0.7500000112560158  1.0000
  Os  Os1       1.0  8.897959813495602e-09  0.999999980278665  0.9999999752196844  1.0000
  O   O1        1.0  0.26802861037016396  0.2680288367794288  0.7319713067402424  1.0000
  O   O2        1.0  0.7319713632423969  0.731971186799415  0.26802876182154683  1.0000
  O   O3        1.0  0.7319712637216147  0.26802873207998656  0.26802874114620134  1.0000
  O   O4        1.0  0.26802885356724143  0.7319713136853604  0.7319712042281838  1.0000
  O   O5        1.0  0.2680287385700931  0.7319713664222718  0.26802867270706915  1.0000
  O   O6        1.0  0.7319712695064239  0.26802863743523714  0.731971338163404  1.0000
