data_image0
_chemical_formula_structural       Ta2OsS6
_chemical_formula_sum              "Ta2 Os1 S6"
_cell_length_a       6.075604935550945
_cell_length_b       6.075604795793788
_cell_length_c       6.075604955681077
_cell_angle_alpha    59.999999147816816
_cell_angle_beta     59.999999205352324
_cell_angle_gamma    59.99999942150002

_space_group_name_H-M_alt    "P 1"
_space_group_IT_number       1

loop_
  _space_group_symop_operation_xyz
  'x, y, z'

loop_
  _atom_site_type_symbol
  _atom_site_label
  _atom_site_symmetry_multiplicity
  _atom_site_fract_x
  _atom_site_fract_y
  _atom_site_fract_z
  _atom_site_occupancy
  Ta  Ta1       1.0  0.25000024107803137  0.24999963491370386  0.24999997057396459  1.0000
  Ta  Ta2       1.0  0.7499994885757751  0.7500005960310978  0.7500001031173577  1.0000
  Os  Os1       1.0  7.086071150918961e-08  0.9999998387327783  4.026547479804011e-08  1.0000
  S   S1        1.0  0.2738320807954476  0.27383180524529444  0.7261680596026332  1.0000
  S   S2        1.0  0.7261679450416241  0.7261681757353142  0.27383188234799366  1.0000
  S   S3        1.0  0.7261680065358689  0.27383191733255996  0.273831987589278  1.0000
  S   S4        1.0  0.27383206134393046  0.7261680515530073  0.7261680348512504  1.0000
  S   S5        1.0  0.2738320602403914  0.7261681611591911  0.2738318576875513  1.0000
  S   S6        1.0  0.7261680555945891  0.2738318178055775  0.7261680764824268  1.0000
