data_image0
_chemical_formula_structural       Ta2OsSe6
_chemical_formula_sum              "Ta2 Os1 Se6"
_cell_length_a       6.601127474229592
_cell_length_b       6.601127407394493
_cell_length_c       6.601127526205499
_cell_angle_alpha    60.00000032492695
_cell_angle_beta     60.00000060415708
_cell_angle_gamma    59.99999969359412

_space_group_name_H-M_alt    "P 1"
_space_group_IT_number       1

loop_
  _space_group_symop_operation_xyz
  'x, y, z'

loop_
  _atom_site_type_symbol
  _atom_site_label
  _atom_site_symmetry_multiplicity
  _atom_site_fract_x
  _atom_site_fract_y
  _atom_site_fract_z
  _atom_site_occupancy
  Ta  Ta1       1.0  0.250000018178329  0.2499999115703819  0.2500002910151059  1.0000
  Ta  Ta2       1.0  0.7500001243378993  0.7500002022611303  0.7499994076036283  1.0000
  Os  Os1       1.0  4.901534020054456e-08  0.999999936917858  4.339082590235398e-08  1.0000
  Se  Se1       1.0  0.25907488505828424  0.2590750122436791  0.7409250296654982  1.0000
  Se  Se2       1.0  0.7409250476028717  0.7409250069646244  0.2590752711155111  1.0000
  Se  Se3       1.0  0.7409249805836715  0.25907480608693095  0.25907505771845035  1.0000
  Se  Se4       1.0  0.25907486249604117  0.7409251407624426  0.7409249225861747  1.0000
  Se  Se5       1.0  0.2590749828875887  0.7409250241328452  0.2590749795591027  1.0000
  Se  Se6       1.0  0.740925063811184  0.25907494683617066  0.7409250050378047  1.0000
