data_image0
_chemical_formula_structural       Ta2PdO6
_chemical_formula_sum              "Ta2 Pd1 O6"
_cell_length_a       4.927114965285797
_cell_length_b       4.927115246776053
_cell_length_c       4.9271148887292515
_cell_angle_alpha    60.000000094639994
_cell_angle_beta     59.9999991087638
_cell_angle_gamma    60.00000000829328

_space_group_name_H-M_alt    "P 1"
_space_group_IT_number       1

loop_
  _space_group_symop_operation_xyz
  'x, y, z'

loop_
  _atom_site_type_symbol
  _atom_site_label
  _atom_site_symmetry_multiplicity
  _atom_site_fract_x
  _atom_site_fract_y
  _atom_site_fract_z
  _atom_site_occupancy
  Ta  Ta1       1.0  0.24999990294210683  0.2500002122999047  0.24999985532135452  1.0000
  Ta  Ta2       1.0  0.7500000169139412  0.7499997196675431  0.7500003880806057  1.0000
  Pd  Pd1       1.0  1.2286459510757199e-08  0.9999999701713117  1.2830285378298001e-08  1.0000
  O   O1        1.0  0.27082306765697306  0.27082301719077395  0.7291769339948395  1.0000
  O   O2        1.0  0.7291769326600215  0.7291769968055718  0.27082291154688776  1.0000
  O   O3        1.0  0.7291770185818514  0.2708232065473659  0.2708228831088922  1.0000
  O   O4        1.0  0.2708230044355804  0.7291768869921449  0.7291770432340777  1.0000
  O   O5        1.0  0.2708230482645454  0.7291769015284757  0.2708230704147599  1.0000
  O   O6        1.0  0.7291769985216207  0.2708230925820746  0.7291769099950068  1.0000
