data_image0
_chemical_formula_structural       Ta2PtS6
_chemical_formula_sum              "Ta2 Pt1 S6"
_cell_length_a       6.289159313847286
_cell_length_b       6.289159837302784
_cell_length_c       6.2891596626253605
_cell_angle_alpha    60.00000106920705
_cell_angle_beta     60.000001510286246
_cell_angle_gamma    60.00000014950101

_space_group_name_H-M_alt    "P 1"
_space_group_IT_number       1

loop_
  _space_group_symop_operation_xyz
  'x, y, z'

loop_
  _atom_site_type_symbol
  _atom_site_label
  _atom_site_symmetry_multiplicity
  _atom_site_fract_x
  _atom_site_fract_y
  _atom_site_fract_z
  _atom_site_occupancy
  Ta  Ta1       1.0  0.24999915793722416  0.24999991819049275  0.2500010661853116  1.0000
  Ta  Ta2       1.0  0.7500017168066151  0.7499988899301382  0.7499989319283767  1.0000
  Pt  Pt1       1.0  4.747549752104284e-09  7.789560582950381e-09  2.235212079974793e-08  1.0000
  S   S1        1.0  0.25957290007311196  0.2595737036156349  0.740426415208017  1.0000
  S   S2        1.0  0.7404267027840726  0.7404267169441497  0.2595737051963003  1.0000
  S   S3        1.0  0.7404267459240599  0.2595735608989744  0.25957311962161234  1.0000
  S   S4        1.0  0.25957294767756983  0.7404268187656171  0.7404265990191826  1.0000
  S   S5        1.0  0.25957279633811153  0.7404268220757384  0.2595737082138082  1.0000
  S   S6        1.0  0.7404270144345237  0.25957357511535745  0.7404264153193861  1.0000
