data_image0
_chemical_formula_structural       Ta2PtO6
_chemical_formula_sum              "Ta2 Pt1 O6"
_cell_length_a       4.9589041548628785
_cell_length_b       4.958904207201968
_cell_length_c       4.958904045398481
_cell_angle_alpha    60.00000048750361
_cell_angle_beta     60.00000154112088
_cell_angle_gamma    60.00000113833759

_space_group_name_H-M_alt    "P 1"
_space_group_IT_number       1

loop_
  _space_group_symop_operation_xyz
  'x, y, z'

loop_
  _atom_site_type_symbol
  _atom_site_label
  _atom_site_symmetry_multiplicity
  _atom_site_fract_x
  _atom_site_fract_y
  _atom_site_fract_z
  _atom_site_occupancy
  Ta  Ta1       1.0  0.250000074639382  0.2500001225534509  0.24999985489192714  1.0000
  Ta  Ta2       1.0  0.7499998728577312  0.7499998909910109  0.7500001822146953  1.0000
  Pt  Pt1       1.0  0.9999997641112448  3.7046836656052384e-08  2.889789711893605e-07  1.0000
  O   O1        1.0  0.2697867543478265  0.2697866644640908  0.7302132092890524  1.0000
  O   O2        1.0  0.730213435434429  0.7302133836574242  0.26978654419310155  1.0000
  O   O3        1.0  0.730213476370109  0.26978662961494654  0.26978653720164164  1.0000
  O   O4        1.0  0.26978675695230975  0.7302132110442658  0.7302133143741801  1.0000
  O   O5        1.0  0.26978663055750735  0.7302132995171228  0.269786652540902  1.0000
  O   O6        1.0  0.7302132218447582  0.2697867757720713  0.7302134153567995  1.0000
