data_image0
_chemical_formula_structural       Ta2PtSe6
_chemical_formula_sum              "Ta2 Pt1 Se6"
_cell_length_a       6.605818974875858
_cell_length_b       6.605818896410462
_cell_length_c       6.605818917434245
_cell_angle_alpha    59.99999892550345
_cell_angle_beta     59.99999973959315
_cell_angle_gamma    60.00000046405722

_space_group_name_H-M_alt    "P 1"
_space_group_IT_number       1

loop_
  _space_group_symop_operation_xyz
  'x, y, z'

loop_
  _atom_site_type_symbol
  _atom_site_label
  _atom_site_symmetry_multiplicity
  _atom_site_fract_x
  _atom_site_fract_y
  _atom_site_fract_z
  _atom_site_occupancy
  Ta  Ta1       1.0  0.24999964926289728  0.25000013734729626  0.2500000586079077  1.0000
  Ta  Ta2       1.0  0.7500002064646485  0.7500000393799734  0.7500001763650376  1.0000
  Pt  Pt1       1.0  0.9999999994698286  2.7810591414539008e-08  1.9663760518280918e-08  1.0000
  Se  Se1       1.0  0.2575934192033911  0.2575933626792191  0.7424065868137179  1.0000
  Se  Se2       1.0  0.7424067483811613  0.7424064710507609  0.25759325802645355  1.0000
  Se  Se3       1.0  0.7424066445819741  0.25759342542916497  0.2575933322626426  1.0000
  Se  Se4       1.0  0.25759330677699516  0.7424065640401251  0.7424065882351709  1.0000
  Se  Se5       1.0  0.257593367497124  0.7424066573567645  0.2575934274751697  1.0000
  Se  Se6       1.0  0.7424066638641356  0.257593322842329  0.7424065272921718  1.0000
