data_image0
_chemical_formula_structural       Ta2PO6
_chemical_formula_sum              "Ta2 P1 O6"
_cell_length_a       4.770751213604764
_cell_length_b       4.770751311415616
_cell_length_c       4.770751256975314
_cell_angle_alpha    60.00000073499196
_cell_angle_beta     60.00000071485152
_cell_angle_gamma    60.000001357285335

_space_group_name_H-M_alt    "P 1"
_space_group_IT_number       1

loop_
  _space_group_symop_operation_xyz
  'x, y, z'

loop_
  _atom_site_type_symbol
  _atom_site_label
  _atom_site_symmetry_multiplicity
  _atom_site_fract_x
  _atom_site_fract_y
  _atom_site_fract_z
  _atom_site_occupancy
  Ta  Ta1       1.0  0.2500000169680486  0.24999996946104003  0.2500002172112219  1.0000
  Ta  Ta2       1.0  0.7499999829112569  0.7500000470116455  0.7499997087019794  1.0000
  P   P1        1.0  0.9999999871892155  0.9999999948656101  1.7357010839612033e-08  1.0000
  O   O1        1.0  0.24722542005802867  0.24722535811028865  0.7527746350763906  1.0000
  O   O2        1.0  0.7527746088909633  0.7527746147200833  0.2472254008323149  1.0000
  O   O3        1.0  0.7527746644528687  0.24722537907254694  0.24722535401823012  1.0000
  O   O4        1.0  0.2472253697521434  0.7527746142953844  0.7527746501287325  1.0000
  O   O5        1.0  0.24722538211952166  0.7527746270225572  0.24722537079173806  1.0000
  O   O6        1.0  0.7527745602328841  0.24722540228610274  0.7527746508306329  1.0000
