data_image0
_chemical_formula_structural       Ta2PdS6
_chemical_formula_sum              "Ta2 Pd1 S6"
_cell_length_a       6.237390179722746
_cell_length_b       6.237390127697454
_cell_length_c       6.237390148685763
_cell_angle_alpha    60.00000028630827
_cell_angle_beta     59.999998642841426
_cell_angle_gamma    59.99999994679849

_space_group_name_H-M_alt    "P 1"
_space_group_IT_number       1

loop_
  _space_group_symop_operation_xyz
  'x, y, z'

loop_
  _atom_site_type_symbol
  _atom_site_label
  _atom_site_symmetry_multiplicity
  _atom_site_fract_x
  _atom_site_fract_y
  _atom_site_fract_z
  _atom_site_occupancy
  Ta  Ta1       1.0  0.2499997941960698  0.2500000264018371  0.2500004011148479  1.0000
  Ta  Ta2       1.0  0.7500001312657515  0.7499998769594962  0.7499994455334872  1.0000
  Pd  Pd1       1.0  2.2215070513361642e-08  3.7117168766211325e-16  2.0957157263953645e-08  1.0000
  S   S1        1.0  0.2678649520918566  0.26786494316369075  0.7321349797649033  1.0000
  S   S2        1.0  0.7321350423508466  0.732135064265977  0.26786513146721097  1.0000
  S   S3        1.0  0.7321350744107042  0.2678648984674239  0.2678650016939243  1.0000
  S   S4        1.0  0.26786497884226756  0.7321350991444759  0.732134993657564  1.0000
  S   S5        1.0  0.2678648892656304  0.7321350060221555  0.2678650231751472  1.0000
  S   S6        1.0  0.7321351476051285  0.26786507405898796  0.7321349824201615  1.0000
