data_image0
_chemical_formula_structural       Ta2ReO6
_chemical_formula_sum              "Ta2 Re1 O6"
_cell_length_a       4.962171496617468
_cell_length_b       4.962171473651441
_cell_length_c       4.962171693294995
_cell_angle_alpha    59.99999978342473
_cell_angle_beta     60.000000632325246
_cell_angle_gamma    60.0000008616349

_space_group_name_H-M_alt    "P 1"
_space_group_IT_number       1

loop_
  _space_group_symop_operation_xyz
  'x, y, z'

loop_
  _atom_site_type_symbol
  _atom_site_label
  _atom_site_symmetry_multiplicity
  _atom_site_fract_x
  _atom_site_fract_y
  _atom_site_fract_z
  _atom_site_occupancy
  Ta  Ta1       1.0  0.24999993093563302  0.25000008744833846  0.2499999592231322  1.0000
  Ta  Ta2       1.0  0.750000102468289  0.7499999686336046  0.7499997608710883  1.0000
  Re  Re1       1.0  0.999999995910613  0.9999999703820421  0.9999999967012053  1.0000
  O   O1        1.0  0.26940718659076524  0.26940711959476865  0.7305928608014279  1.0000
  O   O2        1.0  0.7305928395982672  0.7305928673786088  0.2694072481074406  1.0000
  O   O3        1.0  0.730592910767662  0.2694071352876824  0.26940717846268886  1.0000
  O   O4        1.0  0.26940711542136986  0.7305928516856949  0.7305928881260002  1.0000
  O   O5        1.0  0.2694071156622764  0.7305928238680565  0.26940719504085053  1.0000
  O   O6        1.0  0.7305927993708518  0.26940717544613524  0.7305929128943948  1.0000
