data_image0
_chemical_formula_structural       Ta2RhO6
_chemical_formula_sum              "Ta2 Rh1 O6"
_cell_length_a       4.945241931862856
_cell_length_b       4.945241889353461
_cell_length_c       4.945241700797889
_cell_angle_alpha    60.000000113957555
_cell_angle_beta     60.00000018310082
_cell_angle_gamma    60.00000064743886

_space_group_name_H-M_alt    "P 1"
_space_group_IT_number       1

loop_
  _space_group_symop_operation_xyz
  'x, y, z'

loop_
  _atom_site_type_symbol
  _atom_site_label
  _atom_site_symmetry_multiplicity
  _atom_site_fract_x
  _atom_site_fract_y
  _atom_site_fract_z
  _atom_site_occupancy
  Ta  Ta1       1.0  0.25000004744164606  0.2500000014553943  0.24999990399791117  1.0000
  Ta  Ta2       1.0  0.7499999604317356  0.7500000737113345  0.749999964415908  1.0000
  Rh  Rh1       1.0  0.9999999847397061  2.4766126374978225e-08  1.1424250524324191e-08  1.0000
  O   O1        1.0  0.26902310472306706  0.26902300318103967  0.7309769367393918  1.0000
  O   O2        1.0  0.7309768754382213  0.7309770150235968  0.2690230589416468  1.0000
  O   O3        1.0  0.7309769399147289  0.269023097830924  0.26902310705995014  1.0000
  O   O4        1.0  0.26902308895327354  0.7309767742535654  0.7309769939478896  1.0000
  O   O5        1.0  0.26902305637011836  0.7309769190503859  0.26902310864168416  1.0000
  O   O6        1.0  0.7309769181540473  0.26902310906070154  0.7309768687275237  1.0000
