data_image0
_chemical_formula_structural       Ta2RhS6
_chemical_formula_sum              "Ta2 Rh1 S6"
_cell_length_a       6.21159032494833
_cell_length_b       6.211590253757193
_cell_length_c       6.211590331467383
_cell_angle_alpha    60.00000206250578
_cell_angle_beta     60.00000260428174
_cell_angle_gamma    60.00000380348527

_space_group_name_H-M_alt    "P 1"
_space_group_IT_number       1

loop_
  _space_group_symop_operation_xyz
  'x, y, z'

loop_
  _atom_site_type_symbol
  _atom_site_label
  _atom_site_symmetry_multiplicity
  _atom_site_fract_x
  _atom_site_fract_y
  _atom_site_fract_z
  _atom_site_occupancy
  Ta  Ta1       1.0  0.25000042129662  0.25000030075919827  0.2500000147696095  1.0000
  Ta  Ta2       1.0  0.7499999832060417  0.749999920366452  0.7499996623062086  1.0000
  Rh  Rh1       1.0  0.9999999857663288  3.1547342820556895e-08  0.99999995431561  1.0000
  S   S1        1.0  0.2674752280202075  0.26747536009153916  0.7325243876299747  1.0000
  S   S2        1.0  0.7325247451911735  0.7325246993539597  0.26747549094782075  1.0000
  S   S3        1.0  0.7325245060384185  0.2674752213306515  0.26747534434594683  1.0000
  S   S4        1.0  0.2674752295889553  0.7325245916512194  0.7325249581736425  1.0000
  S   S5        1.0  0.2674752938767843  0.7325247074513025  0.26747526797075666  1.0000
  S   S6        1.0  0.7325246066328781  0.26747513510620785  0.7325249308802977  1.0000
