data_image0
_chemical_formula_structural       Ta2RuO6
_chemical_formula_sum              "Ta2 Ru1 O6"
_cell_length_a       4.937140492932839
_cell_length_b       4.9371405029601645
_cell_length_c       4.937140550805619
_cell_angle_alpha    59.999999340824594
_cell_angle_beta     59.99999932355054
_cell_angle_gamma    59.999999429292956

_space_group_name_H-M_alt    "P 1"
_space_group_IT_number       1

loop_
  _space_group_symop_operation_xyz
  'x, y, z'

loop_
  _atom_site_type_symbol
  _atom_site_label
  _atom_site_symmetry_multiplicity
  _atom_site_fract_x
  _atom_site_fract_y
  _atom_site_fract_z
  _atom_site_occupancy
  Ta  Ta1       1.0  0.24999998317567268  0.24999994904391573  0.2500000640181166  1.0000
  Ta  Ta2       1.0  0.750000264248153  0.7499999413974568  0.7499998599566999  1.0000
  Ru  Ru1       1.0  0.9999999979205988  2.728744234821951e-08  0.9999999853705155  1.0000
  O   O1        1.0  0.2677715267237999  0.2677717577361081  0.7322283441846436  1.0000
  O   O2        1.0  0.7322282816856585  0.7322283832535994  0.2677716922523647  1.0000
  O   O3        1.0  0.73222837823687  0.2677716483716006  0.2677716775606366  1.0000
  O   O4        1.0  0.2677715988989261  0.7322283933910437  0.732228303872095  1.0000
  O   O5        1.0  0.2677716168124763  0.732228280556055  0.2677717116234539  1.0000
  O   O6        1.0  0.7322283531205283  0.2677716074046413  0.7322283827190704  1.0000
