data_image0
_chemical_formula_structural       Ta2RuSe6
_chemical_formula_sum              "Ta2 Ru1 Se6"
_cell_length_a       6.597911802264288
_cell_length_b       6.597911961567343
_cell_length_c       6.597912025549793
_cell_angle_alpha    59.99999901511175
_cell_angle_beta     60.000000293320916
_cell_angle_gamma    60.00000028516569

_space_group_name_H-M_alt    "P 1"
_space_group_IT_number       1

loop_
  _space_group_symop_operation_xyz
  'x, y, z'

loop_
  _atom_site_type_symbol
  _atom_site_label
  _atom_site_symmetry_multiplicity
  _atom_site_fract_x
  _atom_site_fract_y
  _atom_site_fract_z
  _atom_site_occupancy
  Ta  Ta1       1.0  0.2499997220950146  0.2500001523421247  0.25000030779201754  1.0000
  Ta  Ta2       1.0  0.750000397782459  0.7499998444601542  0.7499996151096423  1.0000
  Ru  Ru1       1.0  3.307600479872569e-08  0.9999999480246834  0.9999999791370365  1.0000
  Se  Se1       1.0  0.25865897797231663  0.25865907598968635  0.7413408993755021  1.0000
  Se  Se2       1.0  0.7413409643837149  0.7413409913505227  0.2586590482209225  1.0000
  Se  Se3       1.0  0.7413409763106575  0.25865897694667767  0.2586590891904302  1.0000
  Se  Se4       1.0  0.25865898238172436  0.7413409678802828  0.7413410039479351  1.0000
  Se  Se5       1.0  0.25865881101728627  0.7413409258281725  0.2586592292265103  1.0000
  Se  Se6       1.0  0.7413411111686239  0.25865912851820566  0.7413408471085843  1.0000
