data_image0
_chemical_formula_structural       Ta2ReTe6
_chemical_formula_sum              "Ta2 Re1 Te6"
_cell_length_a       7.0472353668534105
_cell_length_b       7.047235389405745
_cell_length_c       7.047235276948098
_cell_angle_alpha    60.000000293657216
_cell_angle_beta     60.000000106074154
_cell_angle_gamma    59.99999996747979

_space_group_name_H-M_alt    "P 1"
_space_group_IT_number       1

loop_
  _space_group_symop_operation_xyz
  'x, y, z'

loop_
  _atom_site_type_symbol
  _atom_site_label
  _atom_site_symmetry_multiplicity
  _atom_site_fract_x
  _atom_site_fract_y
  _atom_site_fract_z
  _atom_site_occupancy
  Ta  Ta1       1.0  0.2500000058465206  0.250000039588805  0.24999996510744016  1.0000
  Ta  Ta2       1.0  0.749999981577483  0.749999971044212  0.7500000254773589  1.0000
  Re  Re1       1.0  4.046592766301739e-08  2.6068623883558847e-08  2.7749560204992477e-08  1.0000
  Te  Te1       1.0  0.2599420890865448  0.259942078519071  0.7400579325774131  1.0000
  Te  Te2       1.0  0.7400578611826687  0.7400578469564407  0.259942127677511  1.0000
  Te  Te3       1.0  0.7400579031222004  0.25994211226758546  0.2599420850322551  1.0000
  Te  Te4       1.0  0.2599421703991504  0.740057851441908  0.7400578547477157  1.0000
  Te  Te5       1.0  0.259942091074249  0.7400579268735588  0.25994210533471485  1.0000
  Te  Te6       1.0  0.7400578530355465  0.25994214979997265  0.7400578724679346  1.0000
