data_image0
_chemical_formula_structural       Ta2RuS6
_chemical_formula_sum              "Ta2 Ru1 S6"
_cell_length_a       6.140894227769572
_cell_length_b       6.1408941634229555
_cell_length_c       6.1408942036509035
_cell_angle_alpha    59.9999983866534
_cell_angle_beta     59.99999990379333
_cell_angle_gamma    60.00000053674262

_space_group_name_H-M_alt    "P 1"
_space_group_IT_number       1

loop_
  _space_group_symop_operation_xyz
  'x, y, z'

loop_
  _atom_site_type_symbol
  _atom_site_label
  _atom_site_symmetry_multiplicity
  _atom_site_fract_x
  _atom_site_fract_y
  _atom_site_fract_z
  _atom_site_occupancy
  Ta  Ta1       1.0  0.25000046105349044  0.24999970469139227  0.24999971835298812  1.0000
  Ta  Ta2       1.0  0.7499992225675371  0.7500002030209275  0.7500009268583976  1.0000
  Ru  Ru1       1.0  3.8594337264422047e-08  1.3960857239464429e-08  0.9999999688371205  1.0000
  S   S1        1.0  0.27065947020743886  0.2706592522206744  0.7293407065228243  1.0000
  S   S2        1.0  0.7293405827956023  0.7293407432456166  0.2706590554927774  1.0000
  S   S3        1.0  0.7293405690562177  0.2706594331504176  0.2706592282950059  1.0000
  S   S4        1.0  0.2706594293189441  0.7293407318405571  0.7293405658356955  1.0000
  S   S5        1.0  0.27065956792356494  0.7293406689065215  0.2706591574069483  1.0000
  S   S6        1.0  0.7293405998197164  0.27065925874989527  0.7293407065323761  1.0000
