data_image0
_chemical_formula_structural       Ta2SiSe6
_chemical_formula_sum              "Ta2 Si1 Se6"
_cell_length_a       6.490283243605775
_cell_length_b       6.490283240992253
_cell_length_c       6.490283273080252
_cell_angle_alpha    59.999999721615126
_cell_angle_beta     59.999999983874126
_cell_angle_gamma    60.00000014563865

_space_group_name_H-M_alt    "P 1"
_space_group_IT_number       1

loop_
  _space_group_symop_operation_xyz
  'x, y, z'

loop_
  _atom_site_type_symbol
  _atom_site_label
  _atom_site_symmetry_multiplicity
  _atom_site_fract_x
  _atom_site_fract_y
  _atom_site_fract_z
  _atom_site_occupancy
  Ta  Ta1       1.0  0.2499998908163971  0.2500000176426125  0.25000006791067947  1.0000
  Ta  Ta2       1.0  0.749999965341442  0.7499999321570354  0.7500000313884859  1.0000
  Si  Si1       1.0  1.3496039187959153e-08  7.548175218821972e-09  2.6324639382348904e-10  1.0000
  Se  Se1       1.0  0.2527745201846019  0.25277464480576367  0.7472254047409003  1.0000
  Se  Se2       1.0  0.7472254487393071  0.7472253936849431  0.252774569177464  1.0000
  Se  Se3       1.0  0.7472254434006674  0.25277454311441566  0.2527746111662192  1.0000
  Se  Se4       1.0  0.2527746072734459  0.7472254689576782  0.747225384390823  1.0000
  Se  Se5       1.0  0.2527746464192019  0.747225418901743  0.25277453231393227  1.0000
  Se  Se6       1.0  0.7472254585813497  0.2527745742999133  0.7472254008329305  1.0000
