data_image0
_chemical_formula_structural       Ta2SeO6
_chemical_formula_sum              "Ta2 Se1 O6"
_cell_length_a       4.837366271432234
_cell_length_b       4.8373660208223725
_cell_length_c       4.837366173208395
_cell_angle_alpha    60.00000102502434
_cell_angle_beta     60.00000092571617
_cell_angle_gamma    60.00000084867843

_space_group_name_H-M_alt    "P 1"
_space_group_IT_number       1

loop_
  _space_group_symop_operation_xyz
  'x, y, z'

loop_
  _atom_site_type_symbol
  _atom_site_label
  _atom_site_symmetry_multiplicity
  _atom_site_fract_x
  _atom_site_fract_y
  _atom_site_fract_z
  _atom_site_occupancy
  Ta  Ta1       1.0  0.25000014125964226  0.2500000086159978  0.24999993635136492  1.0000
  Ta  Ta2       1.0  0.7499997773698728  0.7500001676311602  0.749999945601563  1.0000
  Se  Se1       1.0  5.661474616069163e-08  0.9999999518949954  4.742614488771499e-08  1.0000
  O   O1        1.0  0.26987918048640575  0.26987908233871694  0.7301208623221681  1.0000
  O   O2        1.0  0.73012083657052  0.730120855915254  0.2698791555653453  1.0000
  O   O3        1.0  0.7301208797839506  0.26987912309629086  0.26987914432342036  1.0000
  O   O4        1.0  0.26987913628422894  0.7301208252850505  0.7301209082723533  1.0000
  O   O5        1.0  0.2698791351780553  0.7301208250693015  0.26987914507210103  1.0000
  O   O6        1.0  0.7301208703532029  0.26987913343940867  0.7301208622491545  1.0000
