data_image0
_chemical_formula_structural       Ta2SiO6
_chemical_formula_sum              "Ta2 Si1 O6"
_cell_length_a       4.755120321149226
_cell_length_b       4.755120258369007
_cell_length_c       4.755120259488095
_cell_angle_alpha    60.00000075824754
_cell_angle_beta     60.00000069640944
_cell_angle_gamma    60.00000046119284

_space_group_name_H-M_alt    "P 1"
_space_group_IT_number       1

loop_
  _space_group_symop_operation_xyz
  'x, y, z'

loop_
  _atom_site_type_symbol
  _atom_site_label
  _atom_site_symmetry_multiplicity
  _atom_site_fract_x
  _atom_site_fract_y
  _atom_site_fract_z
  _atom_site_occupancy
  Ta  Ta1       1.0  0.2500000065894258  0.25000001600597005  0.250000011738735  1.0000
  Ta  Ta2       1.0  0.7499999661009397  0.749999975900162  0.7500000181948905  1.0000
  Si  Si1       1.0  0.9999999911452213  0.9999999974243662  5.715206258876783e-09  1.0000
  O   O1        1.0  0.25214045410774577  0.25214051064892035  0.7478594839477467  1.0000
  O   O2        1.0  0.7478595591530023  0.7478594761059437  0.25214049252538556  1.0000
  O   O3        1.0  0.7478595184154538  0.2521404840267738  0.25214047661280703  1.0000
  O   O4        1.0  0.25214047740506945  0.7478595259087949  0.7478595180200477  1.0000
  O   O5        1.0  0.25214051731818704  0.7478595478613362  0.25214041556708794  1.0000
  O   O6        1.0  0.7478594992041632  0.2521404801036693  0.7478595618031313  1.0000
