data_image0
_chemical_formula_structural       Ta2SO6
_chemical_formula_sum              "Ta2 S1 O6"
_cell_length_a       4.7185216105977315
_cell_length_b       4.718521490002953
_cell_length_c       4.718521422096557
_cell_angle_alpha    59.99999775133589
_cell_angle_beta     60.00000017679157
_cell_angle_gamma    59.999997111952304

_space_group_name_H-M_alt    "P 1"
_space_group_IT_number       1

loop_
  _space_group_symop_operation_xyz
  'x, y, z'

loop_
  _atom_site_type_symbol
  _atom_site_label
  _atom_site_symmetry_multiplicity
  _atom_site_fract_x
  _atom_site_fract_y
  _atom_site_fract_z
  _atom_site_occupancy
  Ta  Ta1       1.0  0.24999979607786443  0.24999955376104901  0.2500001140939934  1.0000
  Ta  Ta2       1.0  0.7499996931781607  0.7500008078539185  0.7499998646399729  1.0000
  S   S1        1.0  1.8420764158576547e-07  0.999999836476466  0.9999999960158719  1.0000
  O   O1        1.0  0.26264279860859396  0.26264267096255184  0.7373573651742586  1.0000
  O   O2        1.0  0.7373572958949696  0.7373573065018842  0.2626426831523833  1.0000
  O   O3        1.0  0.7373573358739877  0.2626426776791174  0.26264269047371835  1.0000
  O   O4        1.0  0.2626427965246315  0.7373572374906416  0.7373572979962647  1.0000
  O   O5        1.0  0.262642710687417  0.7373572838432519  0.26264266252677904  1.0000
  O   O6        1.0  0.7373574045810404  0.26264263132650806  0.7373573069572812  1.0000
