data_image0
_chemical_formula_structural       Ta2SiTe6
_chemical_formula_sum              "Ta2 Si1 Te6"
_cell_length_a       7.009770556057451
_cell_length_b       7.009770574436331
_cell_length_c       7.0097706305713405
_cell_angle_alpha    60.000000137121326
_cell_angle_beta     60.00000017538431
_cell_angle_gamma    60.00000029976608

_space_group_name_H-M_alt    "P 1"
_space_group_IT_number       1

loop_
  _space_group_symop_operation_xyz
  'x, y, z'

loop_
  _atom_site_type_symbol
  _atom_site_label
  _atom_site_symmetry_multiplicity
  _atom_site_fract_x
  _atom_site_fract_y
  _atom_site_fract_z
  _atom_site_occupancy
  Ta  Ta1       1.0  0.24999978059551195  0.24999998425819914  0.25000018990343276  1.0000
  Ta  Ta2       1.0  0.7499999627085103  0.7499999580161885  0.7500001553413234  1.0000
  Si  Si1       1.0  0.9999999977703282  1.747196853918596e-09  2.4493100878922654e-08  1.0000
  Te  Te1       1.0  0.25566619092104037  0.25566611680468354  0.7443338193191337  1.0000
  Te  Te2       1.0  0.7443338761962831  0.7443338621608369  0.2556660817560694  1.0000
  Te  Te3       1.0  0.7443339301555911  0.25566617471385755  0.25566607637197386  1.0000
  Te  Te4       1.0  0.2556661530004781  0.7443338846227155  0.7443337736451702  1.0000
  Te  Te5       1.0  0.2556661914398897  0.7443338554136474  0.2556660992119913  1.0000
  Te  Te6       1.0  0.7443339183894621  0.2556661584958092  0.7443337787276123  1.0000
