data_image0
_chemical_formula_structural       Ta2SiS6
_chemical_formula_sum              "Ta2 Si1 S6"
_cell_length_a       6.198898774261306
_cell_length_b       6.198898710452697
_cell_length_c       6.198898869345003
_cell_angle_alpha    59.999998703061614
_cell_angle_beta     59.99999929496621
_cell_angle_gamma    60.0000004820498

_space_group_name_H-M_alt    "P 1"
_space_group_IT_number       1

loop_
  _space_group_symop_operation_xyz
  'x, y, z'

loop_
  _atom_site_type_symbol
  _atom_site_label
  _atom_site_symmetry_multiplicity
  _atom_site_fract_x
  _atom_site_fract_y
  _atom_site_fract_z
  _atom_site_occupancy
  Ta  Ta1       1.0  0.24999902879752356  0.24999969396252994  0.25000205786458773  1.0000
  Ta  Ta2       1.0  0.7500012588868672  0.7499997694472623  0.749997847358303  1.0000
  Si  Si1       1.0  5.155660754027648e-09  0.9999999901212702  6.850231352409525e-08  1.0000
  S   S1        1.0  0.25069598028193824  0.2506963299345226  0.7493034049846458  1.0000
  S   S2        1.0  0.7493037923852848  0.7493039297008657  0.25069667904559584  1.0000
  S   S3        1.0  0.7493039459214669  0.2506958925153865  0.25069647474944684  1.0000
  S   S4        1.0  0.2506959660422058  0.7493041280547483  0.7493035091385523  1.0000
  S   S5        1.0  0.25069558556649807  0.7493037133380478  0.25069674679465986  1.0000
  S   S6        1.0  0.7493044181754674  0.25069657395778683  0.7493032481977302  1.0000
