data_image0
_chemical_formula_structural       Ta2TiTe6
_chemical_formula_sum              "Ta2 Ti1 Te6"
_cell_length_a       7.052922100604855
_cell_length_b       7.052922130298382
_cell_length_c       7.052922111208622
_cell_angle_alpha    59.99999987625276
_cell_angle_beta     60.00000086422591
_cell_angle_gamma    60.00000049681734

_space_group_name_H-M_alt    "P 1"
_space_group_IT_number       1

loop_
  _space_group_symop_operation_xyz
  'x, y, z'

loop_
  _atom_site_type_symbol
  _atom_site_label
  _atom_site_symmetry_multiplicity
  _atom_site_fract_x
  _atom_site_fract_y
  _atom_site_fract_z
  _atom_site_occupancy
  Ta  Ta1       1.0  0.24999999804663836  0.2499999267962633  0.2500000891504568  1.0000
  Ta  Ta2       1.0  0.7500000029840719  0.7499999748775759  0.7500000537745878  1.0000
  Ti  Ti1       1.0  0.9999999905400041  3.82031543633395e-08  0.9999999558535279  1.0000
  Te  Te1       1.0  0.26138223963719703  0.261382268919402  0.7386177370094871  1.0000
  Te  Te2       1.0  0.7386177329964861  0.7386177768845194  0.2613822445458304  1.0000
  Te  Te3       1.0  0.738617793698141  0.26138224092987844  0.2613822265756771  1.0000
  Te  Te4       1.0  0.2613822268937052  0.7386178083470576  0.7386176867284907  1.0000
  Te  Te5       1.0  0.26138224250190173  0.738617743425347  0.26138221424983393  1.0000
  Te  Te6       1.0  0.7386177664820764  0.2613822277087732  0.7386177907187932  1.0000
