data_image0
_chemical_formula_structural       Ta2TiO6
_chemical_formula_sum              "Ta2 Ti1 O6"
_cell_length_a       4.890270749546478
_cell_length_b       4.890270747742557
_cell_length_c       4.890270817038691
_cell_angle_alpha    59.99999972032989
_cell_angle_beta     59.99999882678944
_cell_angle_gamma    59.999999256888266

_space_group_name_H-M_alt    "P 1"
_space_group_IT_number       1

loop_
  _space_group_symop_operation_xyz
  'x, y, z'

loop_
  _atom_site_type_symbol
  _atom_site_label
  _atom_site_symmetry_multiplicity
  _atom_site_fract_x
  _atom_site_fract_y
  _atom_site_fract_z
  _atom_site_occupancy
  Ta  Ta1       1.0  0.24999995908711795  0.2499999529302748  0.2500000944191775  1.0000
  Ta  Ta2       1.0  0.750000048292184  0.7500000115624  0.7499999904842313  1.0000
  Ti  Ti1       1.0  0.9999999843062769  0.9999999974955479  0.9999999886503224  1.0000
  O   O1        1.0  0.26605139426123026  0.2660512741814988  0.7339486305604693  1.0000
  O   O2        1.0  0.7339486416900279  0.7339487604358337  0.26605129252642334  1.0000
  O   O3        1.0  0.7339487614045037  0.266051315996249  0.26605132176145085  1.0000
  O   O4        1.0  0.2660511923337472  0.7339486960810154  0.7339487048238932  1.0000
  O   O5        1.0  0.26605133179966883  0.7339486136685347  0.26605131527012166  1.0000
  O   O6        1.0  0.7339486868128059  0.26605138087756475  0.7339486794641866  1.0000
