data_image0
_chemical_formula_structural       Ta2TiS6
_chemical_formula_sum              "Ta2 Ti1 S6"
_cell_length_a       6.001874357370568
_cell_length_b       6.001874265126284
_cell_length_c       6.001874314226755
_cell_angle_alpha    59.99999926272909
_cell_angle_beta     59.99999942994984
_cell_angle_gamma    59.999998369246

_space_group_name_H-M_alt    "P 1"
_space_group_IT_number       1

loop_
  _space_group_symop_operation_xyz
  'x, y, z'

loop_
  _atom_site_type_symbol
  _atom_site_label
  _atom_site_symmetry_multiplicity
  _atom_site_fract_x
  _atom_site_fract_y
  _atom_site_fract_z
  _atom_site_occupancy
  Ta  Ta1       1.0  0.24999978229625067  0.2500001272562034  0.24999962176175242  1.0000
  Ta  Ta2       1.0  0.7500006575216831  0.7499997859122135  0.7500001090634691  1.0000
  Ti  Ti1       1.0  0.9999999875429906  1.4284228342134538e-08  2.9077021912953296e-08  1.0000
  S   S1        1.0  0.2708057552938631  0.270806018603061  0.7291943463316664  1.0000
  S   S2        1.0  0.7291942145656046  0.7291940231234149  0.27080577845735015  1.0000
  S   S3        1.0  0.7291939549215211  0.27080593478849074  0.2708058526909393  1.0000
  S   S4        1.0  0.27080584474117125  0.7291940865319471  0.7291941058145338  1.0000
  S   S5        1.0  0.2708056657870111  0.7291941324508519  0.27080605122828916  1.0000
  S   S6        1.0  0.7291941515408916  0.2708058705041491  0.7291940742419158  1.0000
