data_image0
_chemical_formula_structural       Ta2TiSe6
_chemical_formula_sum              "Ta2 Ti1 Se6"
_cell_length_a       6.504431015822603
_cell_length_b       6.504430712179818
_cell_length_c       6.504430824478478
_cell_angle_alpha    60.00000146586451
_cell_angle_beta     60.00000183845097
_cell_angle_gamma    60.00000055348021

_space_group_name_H-M_alt    "P 1"
_space_group_IT_number       1

loop_
  _space_group_symop_operation_xyz
  'x, y, z'

loop_
  _atom_site_type_symbol
  _atom_site_label
  _atom_site_symmetry_multiplicity
  _atom_site_fract_x
  _atom_site_fract_y
  _atom_site_fract_z
  _atom_site_occupancy
  Ta  Ta1       1.0  0.250000142392936  0.2500003210266504  0.2499997180826149  1.0000
  Ta  Ta2       1.0  0.7500000145179752  0.7499996393735797  0.749999988608326  1.0000
  Ti  Ti1       1.0  2.206001079939378e-09  0.9999999774047293  9.167755193122704e-08  1.0000
  Se  Se1       1.0  0.26067064844922455  0.26067059997687897  0.7393293116324166  1.0000
  Se  Se2       1.0  0.7393294363747293  0.7393294169115352  0.2606705873475357  1.0000
  Se  Se3       1.0  0.7393293700588398  0.2606706928161328  0.2606706484520536  1.0000
  Se  Se4       1.0  0.26067050126715413  0.7393294106874942  0.7393294692480393  1.0000
  Se  Se5       1.0  0.260670598990291  0.7393293127014156  0.26067059452713026  1.0000
  Se  Se6       1.0  0.7393293203783708  0.2606705987423966  0.7393295721203303  1.0000
