data_image0
_chemical_formula_structural       Ta2VO6
_chemical_formula_sum              "Ta2 V1 O6"
_cell_length_a       4.847969946934434
_cell_length_b       4.847969829964684
_cell_length_c       4.847969857648009
_cell_angle_alpha    60.00000075699795
_cell_angle_beta     59.999999734768195
_cell_angle_gamma    60.0000005065513

_space_group_name_H-M_alt    "P 1"
_space_group_IT_number       1

loop_
  _space_group_symop_operation_xyz
  'x, y, z'

loop_
  _atom_site_type_symbol
  _atom_site_label
  _atom_site_symmetry_multiplicity
  _atom_site_fract_x
  _atom_site_fract_y
  _atom_site_fract_z
  _atom_site_occupancy
  Ta  Ta1       1.0  0.2499999114647854  0.25000004005337634  0.2500000246184386  1.0000
  Ta  Ta2       1.0  0.7500000311150867  0.7499999231083707  0.7500000755888037  1.0000
  V   V1        1.0  0.9999999714429149  0.9999999570528216  7.288107531291488e-08  1.0000
  O   O1        1.0  0.2608521968553626  0.2608522560309066  0.7391477329284353  1.0000
  O   O2        1.0  0.7391478262730414  0.7391477298675805  0.26085217537127214  1.0000
  O   O3        1.0  0.7391477841969725  0.26085228356343  0.2608521689319394  1.0000
  O   O4        1.0  0.2608522279345323  0.739147821071376  0.7391477783204184  1.0000
  O   O5        1.0  0.26085226397879263  0.7391477613097932  0.26085221737513686  1.0000
  O   O6        1.0  0.7391478087592332  0.26085220437825823  0.7391477463574263  1.0000
