data_image0
_chemical_formula_structural       Ta2VTe6
_chemical_formula_sum              "Ta2 V1 Te6"
_cell_length_a       6.946510170421034
_cell_length_b       6.946510106442175
_cell_length_c       6.9465103459176625
_cell_angle_alpha    59.99999791645507
_cell_angle_beta     59.99999826674027
_cell_angle_gamma    59.99999801137102

_space_group_name_H-M_alt    "P 1"
_space_group_IT_number       1

loop_
  _space_group_symop_operation_xyz
  'x, y, z'

loop_
  _atom_site_type_symbol
  _atom_site_label
  _atom_site_symmetry_multiplicity
  _atom_site_fract_x
  _atom_site_fract_y
  _atom_site_fract_z
  _atom_site_occupancy
  Ta  Ta1       1.0  0.25000008299498694  0.25000005608174425  0.24999991360180812  1.0000
  Ta  Ta2       1.0  0.7500000745642901  0.7500001329830699  0.7499997895035447  1.0000
  V   V1        1.0  0.9999999631447637  0.9999999858951347  0.9999999952490446  1.0000
  Te  Te1       1.0  0.2599954553377354  0.25999550952797734  0.7400045015818986  1.0000
  Te  Te2       1.0  0.7400045371897831  0.7400044714900679  0.2599955133054623  1.0000
  Te  Te3       1.0  0.740004416685495  0.25999542037318274  0.2599955769587017  1.0000
  Te  Te4       1.0  0.25999549266207356  0.7400045059885078  0.740004575946256  1.0000
  Te  Te5       1.0  0.2599955006550467  0.7400044601256364  0.259995540844518  1.0000
  Te  Te6       1.0  0.7400044826219632  0.2599954538942961  0.7400045927831717  1.0000
