data_image0
_chemical_formula_structural       Ta2VSe6
_chemical_formula_sum              "Ta2 V1 Se6"
_cell_length_a       6.482205458201221
_cell_length_b       6.482205186513843
_cell_length_c       6.4822053442072045
_cell_angle_alpha    60.000000893606426
_cell_angle_beta     59.999999608107885
_cell_angle_gamma    59.9999998860567

_space_group_name_H-M_alt    "P 1"
_space_group_IT_number       1

loop_
  _space_group_symop_operation_xyz
  'x, y, z'

loop_
  _atom_site_type_symbol
  _atom_site_label
  _atom_site_symmetry_multiplicity
  _atom_site_fract_x
  _atom_site_fract_y
  _atom_site_fract_z
  _atom_site_occupancy
  Ta  Ta1       1.0  0.2499998799137319  0.25000011952764634  0.24999999978137483  1.0000
  Ta  Ta2       1.0  0.7500001225057927  0.7500001394130683  0.7499996207171783  1.0000
  V   V1        1.0  0.9999999940632645  0.9999999376499515  1.7173857879972467e-08  1.0000
  Se  Se1       1.0  0.25895260626159594  0.2589526381059155  0.7410473708720813  1.0000
  Se  Se2       1.0  0.7410472790064166  0.7410474432316392  0.2589527271383649  1.0000
  Se  Se3       1.0  0.7410474720546303  0.25895255997283956  0.2589527207420802  1.0000
  Se  Se4       1.0  0.25895263277202607  0.741047279522107  0.7410474840568045  1.0000
  Se  Se5       1.0  0.2589525870274198  0.7410472439046244  0.25895271378085283  1.0000
  Se  Se6       1.0  0.7410474442240584  0.25895262393124896  0.7410473362264003  1.0000
