data_image0
_chemical_formula_structural       Ta2VS6
_chemical_formula_sum              "Ta2 V1 S6"
_cell_length_a       5.982571031982826
_cell_length_b       5.9825711705983124
_cell_length_c       5.982571077538565
_cell_angle_alpha    59.9999954417678
_cell_angle_beta     59.99999546052717
_cell_angle_gamma    59.99999944497473

_space_group_name_H-M_alt    "P 1"
_space_group_IT_number       1

loop_
  _space_group_symop_operation_xyz
  'x, y, z'

loop_
  _atom_site_type_symbol
  _atom_site_label
  _atom_site_symmetry_multiplicity
  _atom_site_fract_x
  _atom_site_fract_y
  _atom_site_fract_z
  _atom_site_occupancy
  Ta  Ta1       1.0  0.24999951017698285  0.25000033258038173  0.2500000043100411  1.0000
  Ta  Ta2       1.0  0.7499997952203072  0.749999791947329  0.7499998063010105  1.0000
  V   V1        1.0  2.7275750425667648e-08  0.9999999529146668  1.3359743054546794e-07  1.0000
  S   S1        1.0  0.2711981682267515  0.2711979390923995  0.7288020646318601  1.0000
  S   S2        1.0  0.728802196960284  0.7288019070177112  0.2711980656900037  1.0000
  S   S3        1.0  0.7288019047665795  0.2711984855508752  0.2711980048657744  1.0000
  S   S4        1.0  0.2711981893020453  0.7288017454306163  0.7288019565876154  1.0000
  S   S5        1.0  0.27119815697818533  0.7288016353589643  0.27119822090735374  1.0000
  S   S6        1.0  0.7288021208856924  0.271198235317411  0.7288017402103022  1.0000
