data_image0
_chemical_formula_structural       Ta2WO6
_chemical_formula_sum              "Ta2 W1 O6"
_cell_length_a       4.996863508156764
_cell_length_b       4.996863618450993
_cell_length_c       4.996863656316257
_cell_angle_alpha    60.000000606443734
_cell_angle_beta     60.000000241155284
_cell_angle_gamma    60.0000009129401

_space_group_name_H-M_alt    "P 1"
_space_group_IT_number       1

loop_
  _space_group_symop_operation_xyz
  'x, y, z'

loop_
  _atom_site_type_symbol
  _atom_site_label
  _atom_site_symmetry_multiplicity
  _atom_site_fract_x
  _atom_site_fract_y
  _atom_site_fract_z
  _atom_site_occupancy
  Ta  Ta1       1.0  0.24999999817243915  0.25000006066393476  0.24999995486606646  1.0000
  Ta  Ta2       1.0  0.7499999825226088  0.7500000030668196  0.750000016093194  1.0000
  W   W1        1.0  7.2129049430604445e-09  0.9999999852938368  0.9999999977428631  1.0000
  O   O1        1.0  0.26683493984595624  0.26683488222661456  0.7331650718798416  1.0000
  O   O2        1.0  0.7331651334713942  0.733165090816134  0.26683487209595147  1.0000
  O   O3        1.0  0.7331651144110792  0.26683490172674007  0.2668349560243361  1.0000
  O   O4        1.0  0.26683490916491986  0.7331650541588186  0.7331651354722803  1.0000
  O   O5        1.0  0.26683486560770486  0.7331650566831043  0.26683497164310244  1.0000
  O   O6        1.0  0.7331650852345609  0.2668349163596441  0.7331650775978491  1.0000
