data_image0
_chemical_formula_structural       Ta2WTe6
_chemical_formula_sum              "Ta2 W1 Te6"
_cell_length_a       7.07751266052123
_cell_length_b       7.077512619427033
_cell_length_c       7.077512719191922
_cell_angle_alpha    59.999999698396216
_cell_angle_beta     59.999999474546065
_cell_angle_gamma    59.999999645352105

_space_group_name_H-M_alt    "P 1"
_space_group_IT_number       1

loop_
  _space_group_symop_operation_xyz
  'x, y, z'

loop_
  _atom_site_type_symbol
  _atom_site_label
  _atom_site_symmetry_multiplicity
  _atom_site_fract_x
  _atom_site_fract_y
  _atom_site_fract_z
  _atom_site_occupancy
  Ta  Ta1       1.0  0.24999996602800778  0.2499998977531563  0.25000010332613887  1.0000
  Ta  Ta2       1.0  0.7499998469557283  0.7500001501044994  0.7499999135492215  1.0000
  W   W1        1.0  0.9999999891223212  5.7105628753390996e-08  0.9999999330853266  1.0000
  Te  Te1       1.0  0.2622563833223868  0.2622562778183643  0.7377436849144563  1.0000
  Te  Te2       1.0  0.7377436849200213  0.7377436454451921  0.26225637259804846  1.0000
  Te  Te3       1.0  0.7377436686306712  0.26225631337968164  0.2622563688834151  1.0000
  Te  Te4       1.0  0.2622563986050822  0.7377436912161343  0.7377436654213965  1.0000
  Te  Te5       1.0  0.26225635852880014  0.737743653537073  0.2622563129624925  1.0000
  Te  Te6       1.0  0.7377437018190195  0.2622563129883233  0.7377436505683959  1.0000
