data_image0
_chemical_formula_structural       Ta2WS6
_chemical_formula_sum              "Ta2 W1 S6"
_cell_length_a       6.284301122483763
_cell_length_b       6.2843009399536
_cell_length_c       6.284301007564497
_cell_angle_alpha    59.99999780967828
_cell_angle_beta     59.999996885880435
_cell_angle_gamma    59.99999915535722

_space_group_name_H-M_alt    "P 1"
_space_group_IT_number       1

loop_
  _space_group_symop_operation_xyz
  'x, y, z'

loop_
  _atom_site_type_symbol
  _atom_site_label
  _atom_site_symmetry_multiplicity
  _atom_site_fract_x
  _atom_site_fract_y
  _atom_site_fract_z
  _atom_site_occupancy
  Ta  Ta1       1.0  0.2499993873227472  0.249999980228249  0.25000106893818375  1.0000
  Ta  Ta2       1.0  0.7500005185047144  0.7500001803990081  0.7499989521152685  1.0000
  W   W1        1.0  4.725430456841665e-08  0.9999999629709766  1.5573827945224883e-08  1.0000
  S   S1        1.0  0.26562895137573495  0.26562882307468816  0.7343709237919254  1.0000
  S   S2        1.0  0.7343711304413432  0.7343711017361558  0.26562908739325153  1.0000
  S   S3        1.0  0.7343710334333798  0.26562884493906525  0.2656289352667252  1.0000
  S   S4        1.0  0.265628968555462  0.7343711870610582  0.7343709619881181  1.0000
  S   S5        1.0  0.26562854857687423  0.734371083032124  0.26562923877281963  1.0000
  S   S6        1.0  0.7343713925186661  0.26562883398313375  0.734370876904994  1.0000
