data_image0
_chemical_formula_structural       Te2CrO6
_chemical_formula_sum              "Te2 Cr1 O6"
_cell_length_a       5.305086581497851
_cell_length_b       5.305086663445874
_cell_length_c       5.305086735883073
_cell_angle_alpha    59.99999998364402
_cell_angle_beta     60.0000002105333
_cell_angle_gamma    59.99999998297992

_space_group_name_H-M_alt    "P 1"
_space_group_IT_number       1

loop_
  _space_group_symop_operation_xyz
  'x, y, z'

loop_
  _atom_site_type_symbol
  _atom_site_label
  _atom_site_symmetry_multiplicity
  _atom_site_fract_x
  _atom_site_fract_y
  _atom_site_fract_z
  _atom_site_occupancy
  Te  Te1       1.0  0.25000139055217  0.2499995813255378  0.24999985490028978  1.0000
  Te  Te2       1.0  0.7500010843930996  0.7500000067937784  0.7500008935052823  1.0000
  Cr  Cr1       1.0  0.9999999984609175  4.61724736764989e-09  0.9999999928059676  1.0000
  O   O1        1.0  0.24551849627964642  0.24551912248817195  0.7544810661978839  1.0000
  O   O2        1.0  0.7544807758279662  0.7544814352531006  0.24551822392830028  1.0000
  O   O3        1.0  0.7544805650385761  0.2455190167448381  0.2455186966803017  1.0000
  O   O4        1.0  0.2455182042162572  0.7544812016287548  0.7544810843004892  1.0000
  O   O5        1.0  0.2455187500409799  0.754481106719824  0.2455187863213558  1.0000
  O   O6        1.0  0.7544807367951829  0.2455185391150932  0.754481366994176  1.0000
