data_image0
_chemical_formula_structural       Te2CO6
_chemical_formula_sum              "Te2 C1 O6"
_cell_length_a       5.104044584536832
_cell_length_b       5.104044503620468
_cell_length_c       5.104044454024335
_cell_angle_alpha    59.999998920798596
_cell_angle_beta     59.99999933517569
_cell_angle_gamma    59.999999802077056

_space_group_name_H-M_alt    "P 1"
_space_group_IT_number       1

loop_
  _space_group_symop_operation_xyz
  'x, y, z'

loop_
  _atom_site_type_symbol
  _atom_site_label
  _atom_site_symmetry_multiplicity
  _atom_site_fract_x
  _atom_site_fract_y
  _atom_site_fract_z
  _atom_site_occupancy
  Te  Te1       1.0  0.24999993017279593  0.24999956252421596  0.25000038980090494  1.0000
  Te  Te2       1.0  0.7500000986331311  0.7499997721727011  0.7499995247776985  1.0000
  C   C1        1.0  4.6442368521527623e-07  0.9999995704791882  2.666369973263595e-07  1.0000
  O   O1        1.0  0.22961815067775465  0.22961828360644843  0.7703818357942209  1.0000
  O   O2        1.0  0.7703818389232736  0.7703818813373968  0.22961823380715388  1.0000
  O   O3        1.0  0.7703816999351989  0.22961823074839055  0.22961824160104974  1.0000
  O   O4        1.0  0.22961828344729357  0.7703821021644874  0.7703817471250748  1.0000
  O   O5        1.0  0.22961784574429378  0.7703821436571314  0.2296181441188101  1.0000
  O   O6        1.0  0.7703817414058078  0.22961852279425496  0.770381544844288  1.0000
