data_image0
_chemical_formula_structural       Te2CS6
_chemical_formula_sum              "Te2 C1 S6"
_cell_length_a       6.30624210389788
_cell_length_b       6.306242809977976
_cell_length_c       6.3062428251441185
_cell_angle_alpha    60.00000026945215
_cell_angle_beta     59.99999978448722
_cell_angle_gamma    60.000001693076655

_space_group_name_H-M_alt    "P 1"
_space_group_IT_number       1

loop_
  _space_group_symop_operation_xyz
  'x, y, z'

loop_
  _atom_site_type_symbol
  _atom_site_label
  _atom_site_symmetry_multiplicity
  _atom_site_fract_x
  _atom_site_fract_y
  _atom_site_fract_z
  _atom_site_occupancy
  Te  Te1       1.0  0.25000039730425133  0.2500001102074644  0.2499995344058771  1.0000
  Te  Te2       1.0  0.7499991364123165  0.7500001305845507  0.7500004984801554  1.0000
  C   C1        1.0  1.8196708237920078e-06  0.9999988036572018  0.999997214596846  1.0000
  S   S1        1.0  0.22482231229522015  0.22482229992666572  0.7751778519585046  1.0000
  S   S2        1.0  0.7751773346035872  0.7751774145521925  0.2248226047380323  1.0000
  S   S3        1.0  0.7751766148621615  0.22482338269860536  0.2248233123876935  1.0000
  S   S4        1.0  0.2248216455326257  0.7751783379849956  0.7751785866903741  1.0000
  S   S5        1.0  0.2248230420968162  0.7751772090322552  0.22482257915242135  1.0000
  S   S6        1.0  0.775177694720606  0.22482228987183522  0.775177832047592  1.0000
