data_image0
_chemical_formula_structural       Te2CrSe6
_chemical_formula_sum              "Te2 Cr1 Se6"
_cell_length_a       6.526572592704328
_cell_length_b       6.526572419948286
_cell_length_c       6.526572820780737
_cell_angle_alpha    59.99999910409204
_cell_angle_beta     59.99999956137358
_cell_angle_gamma    59.99999909716016

_space_group_name_H-M_alt    "P 1"
_space_group_IT_number       1

loop_
  _space_group_symop_operation_xyz
  'x, y, z'

loop_
  _atom_site_type_symbol
  _atom_site_label
  _atom_site_symmetry_multiplicity
  _atom_site_fract_x
  _atom_site_fract_y
  _atom_site_fract_z
  _atom_site_occupancy
  Te  Te1       1.0  0.24999994022198246  0.25000015168751394  0.24999985176494213  1.0000
  Te  Te2       1.0  0.7500000890217334  0.7500001754563794  0.7499997417193448  1.0000
  Cr  Cr1       1.0  1.0918929075621798e-08  1.5012411039943544e-08  0.9999999395362008  1.0000
  Se  Se1       1.0  0.2602776807119915  0.2602775279706922  0.7397224022485068  1.0000
  Se  Se2       1.0  0.739722354311852  0.7397223412946534  0.260277748239694  1.0000
  Se  Se3       1.0  0.7397224377523235  0.260277546480758  0.260277683014185  1.0000
  Se  Se4       1.0  0.26027753874279363  0.7397223922169909  0.739722475811957  1.0000
  Se  Se5       1.0  0.260277568051472  0.7397223310474668  0.2602776704057076  1.0000
  Se  Se6       1.0  0.7397223847660624  0.26027751945236394  0.7397224907312637  1.0000
