data_image0
_chemical_formula_structural       Te2CoO6
_chemical_formula_sum              "Te2 Co1 O6"
_cell_length_a       5.280917834175853
_cell_length_b       5.280917758949275
_cell_length_c       5.280917638842453
_cell_angle_alpha    59.999999836415746
_cell_angle_beta     60.00000053954227
_cell_angle_gamma    60.00000098885448

_space_group_name_H-M_alt    "P 1"
_space_group_IT_number       1

loop_
  _space_group_symop_operation_xyz
  'x, y, z'

loop_
  _atom_site_type_symbol
  _atom_site_label
  _atom_site_symmetry_multiplicity
  _atom_site_fract_x
  _atom_site_fract_y
  _atom_site_fract_z
  _atom_site_occupancy
  Te  Te1       1.0  0.2500002508217488  0.24999959742617758  0.24999994230359524  1.0000
  Te  Te2       1.0  0.7499996918311171  0.7500001768346084  0.7500004981383377  1.0000
  Co  Co1       1.0  0.9999999912537892  1.5998036953287246e-16  0.9999999683945098  1.0000
  O   O1        1.0  0.24046402546023596  0.2404635224176714  0.7595363085850837  1.0000
  O   O2        1.0  0.7595360209950432  0.7595364652085487  0.24046348661507816  1.0000
  O   O3        1.0  0.7595361796702198  0.24046387251981932  0.24046366182789325  1.0000
  O   O4        1.0  0.24046378219153933  0.7595362704920914  0.7595361926566973  1.0000
  O   O5        1.0  0.24046383123943768  0.7595364948630721  0.24046365462102534  1.0000
  O   O6        1.0  0.7595362054956601  0.24046362031856566  0.7595362748097676  1.0000
