data_image0
_chemical_formula_structural       Te2CoS6
_chemical_formula_sum              "Te2 Co1 S6"
_cell_length_a       6.407209019817421
_cell_length_b       6.407209050993197
_cell_length_c       6.407208879486062
_cell_angle_alpha    60.000000679806725
_cell_angle_beta     60.000000831106824
_cell_angle_gamma    60.00000045460815

_space_group_name_H-M_alt    "P 1"
_space_group_IT_number       1

loop_
  _space_group_symop_operation_xyz
  'x, y, z'

loop_
  _atom_site_type_symbol
  _atom_site_label
  _atom_site_symmetry_multiplicity
  _atom_site_fract_x
  _atom_site_fract_y
  _atom_site_fract_z
  _atom_site_occupancy
  Te  Te1       1.0  0.2499999815507866  0.24999998498612347  0.2500000306311388  1.0000
  Te  Te2       1.0  0.7500000363078727  0.7500000314187983  0.7499999734991222  1.0000
  Co  Co1       1.0  5.4065687240152525e-09  0.0  0.9999999988574576  1.0000
  S   S1        1.0  0.24001177671058332  0.24001176679323588  0.7599882281485912  1.0000
  S   S2        1.0  0.7599882194312364  0.7599882228505362  0.24001178149176022  1.0000
  S   S3        1.0  0.7599882268415709  0.24001176306633598  0.24001174974082498  1.0000
  S   S4        1.0  0.240011764312208  0.7599882361349896  0.7599882451288343  1.0000
  S   S5        1.0  0.24001175618035578  0.75998823182221  0.2400117494664114  1.0000
  S   S6        1.0  0.7599882308411948  0.2400117635560943  0.7599882446986466  1.0000
