data_image0
_chemical_formula_structural       Te2CrS6
_chemical_formula_sum              "Te2 Cr1 S6"
_cell_length_a       6.358347504676056
_cell_length_b       6.358347415944265
_cell_length_c       6.3583475423438856
_cell_angle_alpha    59.999999869069114
_cell_angle_beta     59.99999819640341
_cell_angle_gamma    59.999999212393284

_space_group_name_H-M_alt    "P 1"
_space_group_IT_number       1

loop_
  _space_group_symop_operation_xyz
  'x, y, z'

loop_
  _atom_site_type_symbol
  _atom_site_label
  _atom_site_symmetry_multiplicity
  _atom_site_fract_x
  _atom_site_fract_y
  _atom_site_fract_z
  _atom_site_occupancy
  Te  Te1       1.0  0.2500003940226494  0.250000269527547  0.2499994316606387  1.0000
  Te  Te2       1.0  0.7500000942391235  0.7499999206044554  0.749999941861678  1.0000
  Cr  Cr1       1.0  7.350394129599293e-08  0.9999999865165992  0.9999999086530376  1.0000
  S   S1        1.0  0.2534544813447182  0.2534544933885377  0.7465456077038035  1.0000
  S   S2        1.0  0.7465455034401476  0.7465453384702723  0.25345459459569264  1.0000
  S   S3        1.0  0.7465452833612992  0.2534545432863053  0.2534545427024663  1.0000
  S   S4        1.0  0.2534543558756088  0.7465456006169042  0.7465457046580565  1.0000
  S   S5        1.0  0.253454591035313  0.7465454039836728  0.2534544004154095  1.0000
  S   S6        1.0  0.746545218125697  0.25345443172753773  0.7465458956334948  1.0000
