data_image0
_chemical_formula_structural       Te2FeO6
_chemical_formula_sum              "Te2 Fe1 O6"
_cell_length_a       5.34540291828742
_cell_length_b       5.345402898331001
_cell_length_c       5.345402992554665
_cell_angle_alpha    60.00000068765658
_cell_angle_beta     60.00000111479646
_cell_angle_gamma    60.000001634074614

_space_group_name_H-M_alt    "P 1"
_space_group_IT_number       1

loop_
  _space_group_symop_operation_xyz
  'x, y, z'

loop_
  _atom_site_type_symbol
  _atom_site_label
  _atom_site_symmetry_multiplicity
  _atom_site_fract_x
  _atom_site_fract_y
  _atom_site_fract_z
  _atom_site_occupancy
  Te  Te1       1.0  0.2500002517825349  0.2500011992347532  0.24999909535747958  1.0000
  Te  Te2       1.0  0.7499996862351257  0.7499997736722571  0.7500001386009261  1.0000
  Fe  Fe1       1.0  0.9999999916213731  0.9999999862527307  0.9999999886137517  1.0000
  O   O1        1.0  0.24370880006415896  0.2437087323882939  0.7562913302036837  1.0000
  O   O2        1.0  0.7562914120118126  0.7562909711875531  0.24370882979663144  1.0000
  O   O3        1.0  0.7562910376655652  0.24370878511293143  0.24370875868668848  1.0000
  O   O4        1.0  0.24370892771625102  0.7562907901550692  0.7562916729991089  1.0000
  O   O5        1.0  0.24370893043359665  0.7562907835292791  0.24370865103233713  1.0000
  O   O6        1.0  0.7562909589900945  0.2437089612883695  0.756291522461103  1.0000
