data_image0
_chemical_formula_structural       Te2FeSe6
_chemical_formula_sum              "Te2 Fe1 Se6"
_cell_length_a       6.67226065601603
_cell_length_b       6.672260066434061
_cell_length_c       6.672260274092074
_cell_angle_alpha    60.00000321671228
_cell_angle_beta     60.000005032927156
_cell_angle_gamma    60.00000212012662

_space_group_name_H-M_alt    "P 1"
_space_group_IT_number       1

loop_
  _space_group_symop_operation_xyz
  'x, y, z'

loop_
  _atom_site_type_symbol
  _atom_site_label
  _atom_site_symmetry_multiplicity
  _atom_site_fract_x
  _atom_site_fract_y
  _atom_site_fract_z
  _atom_site_occupancy
  Te  Te1       1.0  0.24999987398805193  0.25000004436041995  0.25000004473157184  1.0000
  Te  Te2       1.0  0.7500000180283425  0.7500000247822114  0.7500000247832297  1.0000
  Fe  Fe1       1.0  0.999999958465625  0.999999999999982  0.9999995411695977  1.0000
  Se  Se1       1.0  0.24384781632514152  0.24384764085117372  0.7561521899886502  1.0000
  Se  Se2       1.0  0.7561522905134428  0.7561523860731804  0.24384767032731453  1.0000
  Se  Se3       1.0  0.7561522541770899  0.24384766384629095  0.24384773397901108  1.0000
  Se  Se4       1.0  0.2438475704838726  0.7561525191021331  0.7561525161395916  1.0000
  Se  Se5       1.0  0.2438477180130806  0.7561522251825613  0.24384774216434754  1.0000
  Se  Se6       1.0  0.7561525057775526  0.24384747684464145  0.7561525188751741  1.0000
