data_image0
_chemical_formula_structural       Te2GeO6
_chemical_formula_sum              "Te2 Ge1 O6"
_cell_length_a       5.374661466835401
_cell_length_b       5.374661565943687
_cell_length_c       5.374661427460959
_cell_angle_alpha    60.00000015190451
_cell_angle_beta     60.00000095139955
_cell_angle_gamma    60.00000067722063

_space_group_name_H-M_alt    "P 1"
_space_group_IT_number       1

loop_
  _space_group_symop_operation_xyz
  'x, y, z'

loop_
  _atom_site_type_symbol
  _atom_site_label
  _atom_site_symmetry_multiplicity
  _atom_site_fract_x
  _atom_site_fract_y
  _atom_site_fract_z
  _atom_site_occupancy
  Te  Te1       1.0  0.25000007151600884  0.2500004048584663  0.24999985788527262  1.0000
  Te  Te2       1.0  0.7499999519469085  0.7499996627544213  0.7500007766994605  1.0000
  Ge  Ge1       1.0  7.70375909901581e-09  9.114953962672794e-09  2.6941707443488918e-08  1.0000
  O   O1        1.0  0.24469876460101297  0.24469879345739085  0.7553011916898624  1.0000
  O   O2        1.0  0.7553012535895564  0.7553012126295658  0.24469846971897832  1.0000
  O   O3        1.0  0.7553011346852976  0.2446990407906976  0.24469849445393405  1.0000
  O   O4        1.0  0.24469870676920089  0.7553010701182323  0.7553013182680575  1.0000
  O   O5        1.0  0.24469892144975094  0.7553010983279754  0.2446986115180286  1.0000
  O   O6        1.0  0.7553011465044585  0.24469873913232473  0.7553012507265775  1.0000
