data_image0
_chemical_formula_structural       Te2GeSe6
_chemical_formula_sum              "Te2 Ge1 Se6"
_cell_length_a       6.926308819528694
_cell_length_b       6.92630982892558
_cell_length_c       6.926307541715602
_cell_angle_alpha    59.9999821408556
_cell_angle_beta     59.999948719280376
_cell_angle_gamma    59.999963990514736

_space_group_name_H-M_alt    "P 1"
_space_group_IT_number       1

loop_
  _space_group_symop_operation_xyz
  'x, y, z'

loop_
  _atom_site_type_symbol
  _atom_site_label
  _atom_site_symmetry_multiplicity
  _atom_site_fract_x
  _atom_site_fract_y
  _atom_site_fract_z
  _atom_site_occupancy
  Te  Te1       1.0  0.25000126213057955  0.24999801999227766  0.24999833643767028  1.0000
  Te  Te2       1.0  0.7499979080886677  0.7499954604323222  0.7500003552336276  1.0000
  Ge  Ge1       1.0  2.0093238390827565e-06  0.9999968578181153  2.2513092607201564e-06  1.0000
  Se  Se1       1.0  0.3090906878931653  0.3090920499274762  0.6909098762198249  1.0000
  Se  Se2       1.0  0.6909097049515245  0.690911046242607  0.3090898354807822  1.0000
  Se  Se3       1.0  0.6909096587276177  0.30909249296338875  0.3090902798617856  1.0000
  Se  Se4       1.0  0.3090896980932359  0.6909105254038111  0.6909109503039446  1.0000
  Se  Se5       1.0  0.30909028045754827  0.6909112161421018  0.3090898005751295  1.0000
  Se  Se6       1.0  0.6909087254336731  0.3090923998941986  0.6909082714148432  1.0000
