data_image0
_chemical_formula_structural       Te2HfS6
_chemical_formula_sum              "Te2 Hf1 S6"
_cell_length_a       6.450633843011951
_cell_length_b       6.450634023868511
_cell_length_c       6.45063384588649
_cell_angle_alpha    60.00000176553778
_cell_angle_beta     60.00000099644396
_cell_angle_gamma    60.00000158744373

_space_group_name_H-M_alt    "P 1"
_space_group_IT_number       1

loop_
  _space_group_symop_operation_xyz
  'x, y, z'

loop_
  _atom_site_type_symbol
  _atom_site_label
  _atom_site_symmetry_multiplicity
  _atom_site_fract_x
  _atom_site_fract_y
  _atom_site_fract_z
  _atom_site_occupancy
  Te  Te1       1.0  0.2500000865193317  0.2500001045203409  0.2499999276987581  1.0000
  Te  Te2       1.0  0.7500002099111771  0.7500000382578464  0.7499996184716307  1.0000
  Hf  Hf1       1.0  0.999999989061115  0.9999999791149318  3.9165505236702516e-08  1.0000
  S   S1        1.0  0.2702565460096664  0.27025667580218204  0.7297434927539893  1.0000
  S   S2        1.0  0.7297432668354643  0.7297433872330187  0.27025674434268454  1.0000
  S   S3        1.0  0.7297432889117484  0.2702565571330809  0.27025671623450337  1.0000
  S   S4        1.0  0.2702566955276617  0.7297433938822069  0.7297433500035796  1.0000
  S   S5        1.0  0.27025651995166017  0.7297432943649174  0.27025676100317164  1.0000
  S   S6        1.0  0.7297433903012319  0.27025657311009654  0.729743351543366  1.0000
