data_image0
_chemical_formula_structural       Te2IrO6
_chemical_formula_sum              "Te2 Ir1 O6"
_cell_length_a       5.561057445373569
_cell_length_b       5.561057164183625
_cell_length_c       5.5610573062224615
_cell_angle_alpha    60.000000057215225
_cell_angle_beta     60.00000131566003
_cell_angle_gamma    60.00000045128049

_space_group_name_H-M_alt    "P 1"
_space_group_IT_number       1

loop_
  _space_group_symop_operation_xyz
  'x, y, z'

loop_
  _atom_site_type_symbol
  _atom_site_label
  _atom_site_symmetry_multiplicity
  _atom_site_fract_x
  _atom_site_fract_y
  _atom_site_fract_z
  _atom_site_occupancy
  Te  Te1       1.0  0.24999977165136067  0.2500011003091177  0.2499991812677216  1.0000
  Te  Te2       1.0  0.7499992236374579  0.7499994137623089  0.7500004339517894  1.0000
  Ir  Ir1       1.0  4.884767980842006e-08  1.5416518858783303e-08  0.9999999283070786  1.0000
  O   O1        1.0  0.24293920967828228  0.24293897122644215  0.7570610961974321  1.0000
  O   O2        1.0  0.7570610967794822  0.757060730174241  0.24293921923271283  1.0000
  O   O3        1.0  0.7570610523355901  0.2429393429252933  0.24293880069862286  1.0000
  O   O4        1.0  0.2429393979590336  0.7570604377603444  0.7570614049688354  1.0000
  O   O5        1.0  0.24293937066988094  0.7570605369613678  0.24293889147595948  1.0000
  O   O6        1.0  0.7570608375417702  0.24293945294844596  0.7570610447040452  1.0000
