data_image0
_chemical_formula_structural       Te2IrS6
_chemical_formula_sum              "Te2 Ir1 S6"
_cell_length_a       6.422204232629233
_cell_length_b       6.422204030113127
_cell_length_c       6.422203783309311
_cell_angle_alpha    60.00000276424965
_cell_angle_beta     60.00000300013527
_cell_angle_gamma    60.00000278072749

_space_group_name_H-M_alt    "P 1"
_space_group_IT_number       1

loop_
  _space_group_symop_operation_xyz
  'x, y, z'

loop_
  _atom_site_type_symbol
  _atom_site_label
  _atom_site_symmetry_multiplicity
  _atom_site_fract_x
  _atom_site_fract_y
  _atom_site_fract_z
  _atom_site_occupancy
  Te  Te1       1.0  0.25000014663694686  0.25000001955497636  0.24999981643733596  1.0000
  Te  Te2       1.0  0.7499998656816055  0.7500001254115813  0.7499995504577032  1.0000
  Ir  Ir1       1.0  0.9999999261736887  5.7211399406356044e-09  0.9999999312841242  1.0000
  S   S1        1.0  0.25445173998064635  0.2544517298553483  0.7455482640852208  1.0000
  S   S2        1.0  0.7455482196543223  0.7455482549192263  0.25445194886910033  1.0000
  S   S3        1.0  0.7455482506434271  0.25445156642175565  0.2544519193346157  1.0000
  S   S4        1.0  0.25445192931138555  0.7455482104846419  0.7455483403351992  1.0000
  S   S5        1.0  0.2544516816664865  0.7455483121471005  0.2544518261709727  1.0000
  S   S6        1.0  0.7455482270235305  0.25445179849261107  0.7455483960361937  1.0000
