data_image0
_chemical_formula_structural       Te2MnSe6
_chemical_formula_sum              "Te2 Mn1 Se6"
_cell_length_a       6.692757760491991
_cell_length_b       6.692757839302843
_cell_length_c       6.6927578679422295
_cell_angle_alpha    60.00000189953272
_cell_angle_beta     60.00000029341694
_cell_angle_gamma    60.000000882494014

_space_group_name_H-M_alt    "P 1"
_space_group_IT_number       1

loop_
  _space_group_symop_operation_xyz
  'x, y, z'

loop_
  _atom_site_type_symbol
  _atom_site_label
  _atom_site_symmetry_multiplicity
  _atom_site_fract_x
  _atom_site_fract_y
  _atom_site_fract_z
  _atom_site_occupancy
  Te  Te1       1.0  0.2500000777871333  0.25000002880011885  0.24999992463245638  1.0000
  Te  Te2       1.0  0.7500000283468851  0.750000101039999  0.749999794377186  1.0000
  Mn  Mn1       1.0  0.9999999215063535  7.502817161436287e-08  0.9999999673672337  1.0000
  Se  Se1       1.0  0.24828459599839772  0.24828459469230216  0.7517154103391317  1.0000
  Se  Se2       1.0  0.7517153896817717  0.751715337512636  0.24828470379109516  1.0000
  Se  Se3       1.0  0.7517153778777901  0.24828449089010432  0.24828463466797548  1.0000
  Se  Se4       1.0  0.24828462082138075  0.7517153919060364  0.7517154349027493  1.0000
  Se  Se5       1.0  0.2482845953392611  0.7517153781660992  0.24828467060048673  1.0000
  Se  Se6       1.0  0.7517153836131156  0.24828460527759139  0.7517154571339176  1.0000
