data_image0
_chemical_formula_structural       Te2MoSe6
_chemical_formula_sum              "Te2 Mo1 Se6"
_cell_length_a       6.7216066915535135
_cell_length_b       6.721606725351447
_cell_length_c       6.721606671630872
_cell_angle_alpha    59.999999769516066
_cell_angle_beta     59.99999998262431
_cell_angle_gamma    60.00000007077273

_space_group_name_H-M_alt    "P 1"
_space_group_IT_number       1

loop_
  _space_group_symop_operation_xyz
  'x, y, z'

loop_
  _atom_site_type_symbol
  _atom_site_label
  _atom_site_symmetry_multiplicity
  _atom_site_fract_x
  _atom_site_fract_y
  _atom_site_fract_z
  _atom_site_occupancy
  Te  Te1       1.0  0.24999996178063155  0.24999991476103983  0.25000009839214776  1.0000
  Te  Te2       1.0  0.7500001335818641  0.7499999993773105  0.7499998456400031  1.0000
  Mo  Mo1       1.0  1.384735684346466e-08  0.9999999945336958  2.853974351998488e-08  1.0000
  Se  Se1       1.0  0.25793896414370027  0.2579388879670139  0.7420610784632942  1.0000
  Se  Se2       1.0  0.7420611206851391  0.7420610680796677  0.25793890492788196  1.0000
  Se  Se3       1.0  0.7420610382565185  0.2579389645058713  0.2579389093656926  1.0000
  Se  Se4       1.0  0.25793889693984984  0.7420611209100061  0.7420611034977349  1.0000
  Se  Se5       1.0  0.25793885606381317  0.7420610906169124  0.25793893453050376  1.0000
  Se  Se6       1.0  0.7420610115452153  0.25793896564534347  0.7420610924853951  1.0000
