data_image0
_chemical_formula_structural       Te2MoO6
_chemical_formula_sum              "Te2 Mo1 O6"
_cell_length_a       5.404093928901577
_cell_length_b       5.40409395553197
_cell_length_c       5.404094094890377
_cell_angle_alpha    59.99999934696543
_cell_angle_beta     59.99999904492162
_cell_angle_gamma    59.99999975348132

_space_group_name_H-M_alt    "P 1"
_space_group_IT_number       1

loop_
  _space_group_symop_operation_xyz
  'x, y, z'

loop_
  _atom_site_type_symbol
  _atom_site_label
  _atom_site_symmetry_multiplicity
  _atom_site_fract_x
  _atom_site_fract_y
  _atom_site_fract_z
  _atom_site_occupancy
  Te  Te1       1.0  0.2499995710375111  0.249999694621868  0.25000015163364947  1.0000
  Te  Te2       1.0  0.7499996464227753  0.750000488988891  0.7500004921768724  1.0000
  Mo  Mo1       1.0  1.144282918518547e-09  0.9999999773367212  0.99999999040456  1.0000
  O   O1        1.0  0.2516298626226887  0.2516296159882752  0.7483703731632831  1.0000
  O   O2        1.0  0.7483703587973066  0.7483702095426802  0.25162941477800144  1.0000
  O   O3        1.0  0.7483704759506796  0.25162965263148585  0.25162975054870973  1.0000
  O   O4        1.0  0.25162974218450407  0.7483704199292085  0.7483701468262248  1.0000
  O   O5        1.0  0.25162992467786455  0.7483704869072078  0.251629513345859  1.0000
  O   O6        1.0  0.7483704079141809  0.2516294474074859  0.7483701886733675  1.0000
