data_image0
_chemical_formula_structural       Te2NbS6
_chemical_formula_sum              "Te2 Nb1 S6"
_cell_length_a       6.497507499531028
_cell_length_b       6.4975073413516515
_cell_length_c       6.49750721325365
_cell_angle_alpha    60.00000056946457
_cell_angle_beta     59.999999882670366
_cell_angle_gamma    60.00000172632962

_space_group_name_H-M_alt    "P 1"
_space_group_IT_number       1

loop_
  _space_group_symop_operation_xyz
  'x, y, z'

loop_
  _atom_site_type_symbol
  _atom_site_label
  _atom_site_symmetry_multiplicity
  _atom_site_fract_x
  _atom_site_fract_y
  _atom_site_fract_z
  _atom_site_occupancy
  Te  Te1       1.0  0.2499998308755374  0.24999986335396876  0.25000043961447577  1.0000
  Te  Te2       1.0  0.7500001117622918  0.750000206439162  0.749999829983648  1.0000
  Nb  Nb1       1.0  0.999999998349154  0.9999999623010856  0.9999999858157412  1.0000
  S   S1        1.0  0.2613028924785445  0.26130288461177337  0.7386970630483433  1.0000
  S   S2        1.0  0.7386972365437894  0.7386971964910336  0.26130273063500326  1.0000
  S   S3        1.0  0.7386970858258369  0.2613028199889021  0.26130287746498615  1.0000
  S   S4        1.0  0.2613027434351887  0.7386971687515592  0.7386972077014008  1.0000
  S   S5        1.0  0.2613028076547135  0.7386971267743828  0.2613028423773121  1.0000
  S   S6        1.0  0.7386972938697154  0.26130278091341813  0.7386970286767137  1.0000
