data_image0
_chemical_formula_structural       Te2NbSe6
_chemical_formula_sum              "Te2 Nb1 Se6"
_cell_length_a       6.666401838459486
_cell_length_b       6.6664016265847845
_cell_length_c       6.666401562237023
_cell_angle_alpha    60.00000008822563
_cell_angle_beta     59.999997854602114
_cell_angle_gamma    59.99999994943368

_space_group_name_H-M_alt    "P 1"
_space_group_IT_number       1

loop_
  _space_group_symop_operation_xyz
  'x, y, z'

loop_
  _atom_site_type_symbol
  _atom_site_label
  _atom_site_symmetry_multiplicity
  _atom_site_fract_x
  _atom_site_fract_y
  _atom_site_fract_z
  _atom_site_occupancy
  Te  Te1       1.0  0.24999993181362978  0.25000013847053887  0.24999998011128774  1.0000
  Te  Te2       1.0  0.749999909628932  0.7499999377421304  0.7500002480795935  1.0000
  Nb  Nb1       1.0  0.9999999804573878  0.9999999650933825  0.9999999507215732  1.0000
  Se  Se1       1.0  0.264930619928836  0.26493064261354465  0.7350693263893107  1.0000
  Se  Se2       1.0  0.7350694641335868  0.7350693968553166  0.2649304793508323  1.0000
  Se  Se3       1.0  0.7350693515862465  0.26493069942457215  0.2649305339719738  1.0000
  Se  Se4       1.0  0.26493054374414476  0.7350693969971894  0.7350694981641221  1.0000
  Se  Se5       1.0  0.26493067285948335  0.7350693350294402  0.264930546203852  1.0000
  Se  Se6       1.0  0.7350695314577768  0.2649304839765822  0.7350694311451206  1.0000
