data_image0
_chemical_formula_structural       Te2NiSe6
_chemical_formula_sum              "Te2 Ni1 Se6"
_cell_length_a       6.609642271982844
_cell_length_b       6.609642309976688
_cell_length_c       6.609642158174839
_cell_angle_alpha    60.000000138551854
_cell_angle_beta     60.000000296076585
_cell_angle_gamma    59.99999975646066

_space_group_name_H-M_alt    "P 1"
_space_group_IT_number       1

loop_
  _space_group_symop_operation_xyz
  'x, y, z'

loop_
  _atom_site_type_symbol
  _atom_site_label
  _atom_site_symmetry_multiplicity
  _atom_site_fract_x
  _atom_site_fract_y
  _atom_site_fract_z
  _atom_site_occupancy
  Te  Te1       1.0  0.24999999192800296  0.2500000333027826  0.24999999490992264  1.0000
  Te  Te2       1.0  0.7499999996788157  0.7500000072600005  0.7500000175935971  1.0000
  Ni  Ni1       1.0  0.9999999697348727  9.079537943692929e-08  1.3161958298744534e-07  1.0000
  Se  Se1       1.0  0.25021073094034874  0.25021079787551703  0.7497892145081425  1.0000
  Se  Se2       1.0  0.7497893100425583  0.7497891574507868  0.25021072514910053  1.0000
  Se  Se3       1.0  0.7497893044382187  0.2502107096974034  0.2502107204311667  1.0000
  Se  Se4       1.0  0.25021082200817724  0.7497891307449498  0.7497891734186592  1.0000
  Se  Se5       1.0  0.25021071061010935  0.7497892541894466  0.25021079825241493  1.0000
  Se  Se6       1.0  0.7497891701942768  0.2502108252856431  0.7497892138855787  1.0000
