data_image0
_chemical_formula_structural       Te2NiS6
_chemical_formula_sum              "Te2 Ni1 S6"
_cell_length_a       6.49314949206351
_cell_length_b       6.493149702648894
_cell_length_c       6.493149477361706
_cell_angle_alpha    59.99999844317625
_cell_angle_beta     59.99999838535917
_cell_angle_gamma    59.99999891836417

_space_group_name_H-M_alt    "P 1"
_space_group_IT_number       1

loop_
  _space_group_symop_operation_xyz
  'x, y, z'

loop_
  _atom_site_type_symbol
  _atom_site_label
  _atom_site_symmetry_multiplicity
  _atom_site_fract_x
  _atom_site_fract_y
  _atom_site_fract_z
  _atom_site_occupancy
  Te  Te1       1.0  0.25000005667812925  0.25000026262513114  0.2499996474392564  1.0000
  Te  Te2       1.0  0.7499995876590237  0.7499995580659642  0.750000379739411  1.0000
  Ni  Ni1       1.0  7.777829878462739e-08  8.676569444978139e-08  0.9999999315887627  1.0000
  S   S1        1.0  0.2364067928836884  0.23640680301541372  0.7635932900913212  1.0000
  S   S2        1.0  0.7635933393987857  0.7635931063275769  0.23640675988583437  1.0000
  S   S3        1.0  0.7635930849676149  0.2364068720218758  0.2364066762398659  1.0000
  S   S4        1.0  0.2364070962823076  0.7635930184590065  0.7635933725453812  1.0000
  S   S5        1.0  0.23640696046297582  0.7635932821226202  0.2364066218028257  1.0000
  S   S6        1.0  0.7635930210675245  0.23640701012115728  0.7635933120999175  1.0000
