data_image0
_chemical_formula_structural       Te2OsO6
_chemical_formula_sum              "Te2 Os1 O6"
_cell_length_a       5.5658779206289095
_cell_length_b       5.565877907176757
_cell_length_c       5.565878085300332
_cell_angle_alpha    60.00000018099896
_cell_angle_beta     59.999998968036195
_cell_angle_gamma    60.00000127930288

_space_group_name_H-M_alt    "P 1"
_space_group_IT_number       1

loop_
  _space_group_symop_operation_xyz
  'x, y, z'

loop_
  _atom_site_type_symbol
  _atom_site_label
  _atom_site_symmetry_multiplicity
  _atom_site_fract_x
  _atom_site_fract_y
  _atom_site_fract_z
  _atom_site_occupancy
  Te  Te1       1.0  0.25000010223625285  0.24999990773156225  0.24999989437172968  1.0000
  Te  Te2       1.0  0.7499999198825905  0.7500000994720181  0.749999772832711  1.0000
  Os  Os1       1.0  0.9999999738894477  0.9999999911981912  5.698273799587756e-08  1.0000
  O   O1        1.0  0.2387043043709258  0.238704328699495  0.7612956990260162  1.0000
  O   O2        1.0  0.7612956751663582  0.7612956631009256  0.2387044607095033  1.0000
  O   O3        1.0  0.7612956825336508  0.2387042584580519  0.23870438445578024  1.0000
  O   O4        1.0  0.2387043745191426  0.7612956937342277  0.761295652119676  1.0000
  O   O5        1.0  0.23870431330426187  0.7612957412964186  0.23870434892758619  1.0000
  O   O6        1.0  0.7612956510599582  0.23870432091847316  0.7612957292873795  1.0000
