data_image0
_chemical_formula_structural       Te2OsSe6
_chemical_formula_sum              "Te2 Os1 Se6"
_cell_length_a       6.610770953623604
_cell_length_b       6.610770949380369
_cell_length_c       6.6107708294524326
_cell_angle_alpha    59.99999928119392
_cell_angle_beta     60.00000138007048
_cell_angle_gamma    60.00000052972625

_space_group_name_H-M_alt    "P 1"
_space_group_IT_number       1

loop_
  _space_group_symop_operation_xyz
  'x, y, z'

loop_
  _atom_site_type_symbol
  _atom_site_label
  _atom_site_symmetry_multiplicity
  _atom_site_fract_x
  _atom_site_fract_y
  _atom_site_fract_z
  _atom_site_occupancy
  Te  Te1       1.0  0.24999990940045277  0.25000007277657527  0.2500000010874259  1.0000
  Te  Te2       1.0  0.7499999794835104  0.7499999256109309  0.7500000814625538  1.0000
  Os  Os1       1.0  1.7061316493134215e-08  0.9999999907367472  0.9999999930756026  1.0000
  Se  Se1       1.0  0.26482745356359705  0.2648274251852043  0.7351726034550592  1.0000
  Se  Se2       1.0  0.7351725684052831  0.7351725250333868  0.26482745478911524  1.0000
  Se  Se3       1.0  0.7351725934993133  0.2648274662943469  0.2648274298437816  1.0000
  Se  Se4       1.0  0.2648274728241058  0.7351725395037636  0.7351725345655596  1.0000
  Se  Se5       1.0  0.2648274625172661  0.7351725701164609  0.26482736494239256  1.0000
  Se  Se6       1.0  0.7351725467463864  0.26482749681912027  0.7351725338954138  1.0000
