data_image0
_chemical_formula_structural       Te2OsS6
_chemical_formula_sum              "Te2 Os1 S6"
_cell_length_a       6.316189282934356
_cell_length_b       6.316189854943211
_cell_length_c       6.316189651951325
_cell_angle_alpha    60.00000357267614
_cell_angle_beta     60.00000006867172
_cell_angle_gamma    60.00000318361597

_space_group_name_H-M_alt    "P 1"
_space_group_IT_number       1

loop_
  _space_group_symop_operation_xyz
  'x, y, z'

loop_
  _atom_site_type_symbol
  _atom_site_label
  _atom_site_symmetry_multiplicity
  _atom_site_fract_x
  _atom_site_fract_y
  _atom_site_fract_z
  _atom_site_occupancy
  Te  Te1       1.0  0.2499995870471182  0.25000041123539607  0.24999991977432942  1.0000
  Te  Te2       1.0  0.7500001695731524  0.7499995641786693  0.7500001606036846  1.0000
  Os  Os1       1.0  0.9999999108827646  0.9999999437673665  1.027563594000818e-07  1.0000
  S   S1        1.0  0.2629878301914476  0.26298801171813585  0.7370120877017589  1.0000
  S   S2        1.0  0.7370122290352594  0.7370119772693247  0.2629878820833346  1.0000
  S   S3        1.0  0.7370122251556469  0.26298824466959564  0.26298775111524425  1.0000
  S   S4        1.0  0.2629878969634735  0.7370119614921794  0.7370122147945297  1.0000
  S   S5        1.0  0.262987952272378  0.7370118546387157  0.26298801789720766  1.0000
  S   S6        1.0  0.7370121745614571  0.2629880083100793  0.737011870277342  1.0000
