data_image0
_chemical_formula_structural       Te2PtO6
_chemical_formula_sum              "Te2 Pt1 O6"
_cell_length_a       5.4848285718408265
_cell_length_b       5.484828771126306
_cell_length_c       5.484828670685276
_cell_angle_alpha    59.99999918340105
_cell_angle_beta     59.9999986420506
_cell_angle_gamma    59.99999897758792

_space_group_name_H-M_alt    "P 1"
_space_group_IT_number       1

loop_
  _space_group_symop_operation_xyz
  'x, y, z'

loop_
  _atom_site_type_symbol
  _atom_site_label
  _atom_site_symmetry_multiplicity
  _atom_site_fract_x
  _atom_site_fract_y
  _atom_site_fract_z
  _atom_site_occupancy
  Te  Te1       1.0  0.2500003621979181  0.24999957365695583  0.24999987017561492  1.0000
  Te  Te2       1.0  0.7499994686382341  0.7500004358905391  0.7499998519353099  1.0000
  Pt  Pt1       1.0  0.9999999617221527  2.009671472655238e-08  4.190836441442374e-08  1.0000
  O   O1        1.0  0.24882366163825015  0.24882305624156914  0.7511767662758274  1.0000
  O   O2        1.0  0.7511764290391642  0.7511769064135813  0.24882339814715057  1.0000
  O   O3        1.0  0.7511766626434537  0.2488232303423654  0.24882346408331557  1.0000
  O   O4        1.0  0.24882349812425064  0.751176736778722  0.7511765700777872  1.0000
  O   O5        1.0  0.24882341259664537  0.7511767144041533  0.24882326070025335  1.0000
  O   O6        1.0  0.7511765465109203  0.2488233398027007  0.7511767942838155  1.0000
