data_image0
_chemical_formula_structural       Te2PS6
_chemical_formula_sum              "Te2 P1 S6"
_cell_length_a       6.536978504450262
_cell_length_b       6.536978254843396
_cell_length_c       6.536978500935664
_cell_angle_alpha    59.99999784215023
_cell_angle_beta     59.99999914796016
_cell_angle_gamma    59.99999812889404

_space_group_name_H-M_alt    "P 1"
_space_group_IT_number       1

loop_
  _space_group_symop_operation_xyz
  'x, y, z'

loop_
  _atom_site_type_symbol
  _atom_site_label
  _atom_site_symmetry_multiplicity
  _atom_site_fract_x
  _atom_site_fract_y
  _atom_site_fract_z
  _atom_site_occupancy
  Te  Te1       1.0  0.24999996530397867  0.2499999194152279  0.25000009244527444  1.0000
  Te  Te2       1.0  0.7500000350972003  0.7500000242918106  0.7500004648086037  1.0000
  P   P1        1.0  0.9999999672585873  1.8735643503199313e-08  0.9999999305149476  1.0000
  S   S1        1.0  0.23822566875279444  0.23822567531433525  0.7617742435371647  1.0000
  S   S2        1.0  0.7617744393292166  0.7617742103122157  0.23822549497175444  1.0000
  S   S3        1.0  0.7617742974304527  0.23822573138473063  0.23822560402370688  1.0000
  S   S4        1.0  0.23822565661222386  0.7617744202879495  0.761774197802996  1.0000
  S   S5        1.0  0.23822575535571888  0.761774423983023  0.2382255438905655  1.0000
  S   S6        1.0  0.7617742075925625  0.2382256002872845  0.7617744104998051  1.0000
