data_image0
_chemical_formula_structural       Te2PbS6
_chemical_formula_sum              "Te2 Pb1 S6"
_cell_length_a       6.607829563597628
_cell_length_b       6.607829535067541
_cell_length_c       6.60782956005223
_cell_angle_alpha    59.999999472984655
_cell_angle_beta     59.9999995240648
_cell_angle_gamma    59.99999965272879

_space_group_name_H-M_alt    "P 1"
_space_group_IT_number       1

loop_
  _space_group_symop_operation_xyz
  'x, y, z'

loop_
  _atom_site_type_symbol
  _atom_site_label
  _atom_site_symmetry_multiplicity
  _atom_site_fract_x
  _atom_site_fract_y
  _atom_site_fract_z
  _atom_site_occupancy
  Te  Te1       1.0  0.24999996998543683  0.24999997325753717  0.25000004181595725  1.0000
  Te  Te2       1.0  0.7499999914151672  0.750000016153327  0.7499999956674667  1.0000
  Pb  Pb1       1.0  0.9999999997879959  1.112085174123332e-08  5.990010433630088e-10  1.0000
  S   S1        1.0  0.28083575124149235  0.2808357343854746  0.7191642477109482  1.0000
  S   S2        1.0  0.7191642262921923  0.7191642642927659  0.28083574831847896  1.0000
  S   S3        1.0  0.7191642723215803  0.28083575013582346  0.2808357442552807  1.0000
  S   S4        1.0  0.2808357633905448  0.7191642522493676  0.7191642450451502  1.0000
  S   S5        1.0  0.2808357671373934  0.7191642423080429  0.2808357344182684  1.0000
  S   S6        1.0  0.7191642575780691  0.2808357563701978  0.7191642440736945  1.0000
