data_image0
_chemical_formula_structural       Te2PdO6
_chemical_formula_sum              "Te2 Pd1 O6"
_cell_length_a       5.391127624328723
_cell_length_b       5.39112750833267
_cell_length_c       5.3911276373469
_cell_angle_alpha    59.99999854649868
_cell_angle_beta     60.00000005868004
_cell_angle_gamma    59.999999724114446

_space_group_name_H-M_alt    "P 1"
_space_group_IT_number       1

loop_
  _space_group_symop_operation_xyz
  'x, y, z'

loop_
  _atom_site_type_symbol
  _atom_site_label
  _atom_site_symmetry_multiplicity
  _atom_site_fract_x
  _atom_site_fract_y
  _atom_site_fract_z
  _atom_site_occupancy
  Te  Te1       1.0  0.2500008392514185  0.2499975909287309  0.2500003964932625  1.0000
  Te  Te2       1.0  0.7499995203986388  0.7500013214895888  0.7500000869252075  1.0000
  Pd  Pd1       1.0  4.3594328502112084e-08  0.999999997728222  0.9999999274015385  1.0000
  O   O1        1.0  0.25534647776165104  0.2553458357585458  0.744654030066993  1.0000
  O   O2        1.0  0.7446531914944283  0.7446545374135054  0.2553459160698327  1.0000
  O   O3        1.0  0.7446538807359812  0.2553458466865383  0.25534647962293855  1.0000
  O   O4        1.0  0.2553460364553979  0.7446545537468608  0.744653213911794  1.0000
  O   O5        1.0  0.2553462569967046  0.7446547189707056  0.25534598408839293  1.0000
  O   O6        1.0  0.7446537542432526  0.2553455792326486  0.7446539695132056  1.0000
