data_image0
_chemical_formula_structural       Te2PbO6
_chemical_formula_sum              "Te2 Pb1 O6"
_cell_length_a       5.648742304429845
_cell_length_b       5.64874221663145
_cell_length_c       5.648742406194828
_cell_angle_alpha    59.999999822484355
_cell_angle_beta     59.99999933220996
_cell_angle_gamma    59.99999909621031

_space_group_name_H-M_alt    "P 1"
_space_group_IT_number       1

loop_
  _space_group_symop_operation_xyz
  'x, y, z'

loop_
  _atom_site_type_symbol
  _atom_site_label
  _atom_site_symmetry_multiplicity
  _atom_site_fract_x
  _atom_site_fract_y
  _atom_site_fract_z
  _atom_site_occupancy
  Te  Te1       1.0  0.2499998973636725  0.250000300963897  0.24999992315782513  1.0000
  Te  Te2       1.0  0.7500001344474783  0.7500003239895681  0.7499993951699161  1.0000
  Pb  Pb1       1.0  1.0323588772808303e-08  3.035441778823592e-08  0.9999999584173304  1.0000
  O   O1        1.0  0.25705785769144995  0.2570578538189836  0.7429421430499941  1.0000
  O   O2        1.0  0.7429422594722906  0.7429419754150989  0.25705807571524564  1.0000
  O   O3        1.0  0.7429420888665185  0.2570576427480024  0.25705810753309594  1.0000
  O   O4        1.0  0.2570579438485136  0.7429420412185083  0.7429422172387551  1.0000
  O   O5        1.0  0.25705766939444014  0.7429420316134533  0.2570580893483404  1.0000
  O   O6        1.0  0.7429421541311393  0.2570577954524562  0.742942100289512  1.0000
