data_image0
_chemical_formula_structural       Te2PtSe6
_chemical_formula_sum              "Te2 Pt1 Se6"
_cell_length_a       6.708473564450121
_cell_length_b       6.708473628450099
_cell_length_c       6.708473495991688
_cell_angle_alpha    60.00000017349368
_cell_angle_beta     60.000001110514376
_cell_angle_gamma    60.000000318900995

_space_group_name_H-M_alt    "P 1"
_space_group_IT_number       1

loop_
  _space_group_symop_operation_xyz
  'x, y, z'

loop_
  _atom_site_type_symbol
  _atom_site_label
  _atom_site_symmetry_multiplicity
  _atom_site_fract_x
  _atom_site_fract_y
  _atom_site_fract_z
  _atom_site_occupancy
  Te  Te1       1.0  0.25000002795167436  0.2500000453375235  0.24999993588587627  1.0000
  Te  Te2       1.0  0.7499999937262776  0.7499999881334249  0.7500000175913515  1.0000
  Pt  Pt1       1.0  0.9999999632271384  3.286203220825292e-08  9.408674798153045e-09  1.0000
  Se  Se1       1.0  0.26030960354152666  0.2603096584713172  0.7396903806026078  1.0000
  Se  Se2       1.0  0.739690332073589  0.7396903749996311  0.2603096367751667  1.0000
  Se  Se3       1.0  0.7396903595355826  0.2603096233596428  0.2603096700132134  1.0000
  Se  Se4       1.0  0.2603097243701777  0.7396903060482034  0.739690305872314  1.0000
  Se  Se5       1.0  0.26030965043263654  0.739690341091397  0.2603096432728926  1.0000
  Se  Se6       1.0  0.7396903459664377  0.2603096339581605  0.7396903997553362  1.0000
