data_image0
_chemical_formula_structural       Te2PtS6
_chemical_formula_sum              "Te2 Pt1 S6"
_cell_length_a       6.446525941578189
_cell_length_b       6.4465258989388365
_cell_length_c       6.446526175313043
_cell_angle_alpha    60.00000084438183
_cell_angle_beta     59.999999652695955
_cell_angle_gamma    59.99999915555591

_space_group_name_H-M_alt    "P 1"
_space_group_IT_number       1

loop_
  _space_group_symop_operation_xyz
  'x, y, z'

loop_
  _atom_site_type_symbol
  _atom_site_label
  _atom_site_symmetry_multiplicity
  _atom_site_fract_x
  _atom_site_fract_y
  _atom_site_fract_z
  _atom_site_occupancy
  Te  Te1       1.0  0.25000013144908084  0.25000020274770857  0.24999967316901578  1.0000
  Te  Te2       1.0  0.7499996980308158  0.7500001769766153  0.7499999866164972  1.0000
  Pt  Pt1       1.0  0.9999999753578434  0.9999999772017697  2.0617746815295372e-08  1.0000
  S   S1        1.0  0.2542130316575801  0.2542129298502216  0.7457869561520292  1.0000
  S   S2        1.0  0.7457870311377401  0.7457870186075755  0.25421299651191104  1.0000
  S   S3        1.0  0.745787091774861  0.25421285171631813  0.2542129929983517  1.0000
  S   S4        1.0  0.2542130387445845  0.7457869580522462  0.7457871812949064  1.0000
  S   S5        1.0  0.25421301268766666  0.7457869698248427  0.2542129771765167  1.0000
  S   S6        1.0  0.7457869817720872  0.2542128988391522  0.7457872372500949  1.0000
