data_image0
_chemical_formula_structural       Te2PbSe6
_chemical_formula_sum              "Te2 Pb1 Se6"
_cell_length_a       7.1554441960495625
_cell_length_b       7.155444560323077
_cell_length_c       7.1554444164842
_cell_angle_alpha    60.00000325380837
_cell_angle_beta     60.00000272027293
_cell_angle_gamma    60.00000241162548

_space_group_name_H-M_alt    "P 1"
_space_group_IT_number       1

loop_
  _space_group_symop_operation_xyz
  'x, y, z'

loop_
  _atom_site_type_symbol
  _atom_site_label
  _atom_site_symmetry_multiplicity
  _atom_site_fract_x
  _atom_site_fract_y
  _atom_site_fract_z
  _atom_site_occupancy
  Te  Te1       1.0  0.2499999367241754  0.2499999650863559  0.2500001074154444  1.0000
  Te  Te2       1.0  0.7499999580321909  0.7499999551659894  0.7499999696014176  1.0000
  Pb  Pb1       1.0  0.9999999544741907  0.9999999332465686  7.291006460057171e-08  1.0000
  Se  Se1       1.0  0.3179936356068953  0.31799366079642394  0.6820063828707196  1.0000
  Se  Se2       1.0  0.6820063297287541  0.6820063381907391  0.3179936893659571  1.0000
  Se  Se3       1.0  0.682006452195787  0.31799365420774944  0.3179935781854358  1.0000
  Se  Se4       1.0  0.3179936986217241  0.6820063499142899  0.6820062659768399  1.0000
  Se  Se5       1.0  0.31799368347429835  0.6820064316678172  0.3179936125771904  1.0000
  Se  Se6       1.0  0.6820063450878824  0.31799372136572646  0.6820063118919926  1.0000
