data_image0
_chemical_formula_structural       Te2PSe6
_chemical_formula_sum              "Te2 P1 Se6"
_cell_length_a       6.508539566194507
_cell_length_b       6.508539430260142
_cell_length_c       6.508539373723966
_cell_angle_alpha    59.999998967721396
_cell_angle_beta     59.99999868739318
_cell_angle_gamma    60.00000007450931

_space_group_name_H-M_alt    "P 1"
_space_group_IT_number       1

loop_
  _space_group_symop_operation_xyz
  'x, y, z'

loop_
  _atom_site_type_symbol
  _atom_site_label
  _atom_site_symmetry_multiplicity
  _atom_site_fract_x
  _atom_site_fract_y
  _atom_site_fract_z
  _atom_site_occupancy
  Te  Te1       1.0  0.2499999555901757  0.24999996871704547  0.25000004687143923  1.0000
  Te  Te2       1.0  0.7500000223006207  0.7500000303466877  0.7499998056232259  1.0000
  P   P1        1.0  0.9999999991944418  0.9999999491927308  0.9999999505207054  1.0000
  Se  Se1       1.0  0.2531080417915009  0.25310805516650453  0.7468919932086819  1.0000
  Se  Se2       1.0  0.7468919566539995  0.7468919514242303  0.25310809568534465  1.0000
  Se  Se3       1.0  0.746891916750515  0.2531080613054437  0.25310810911118214  1.0000
  Se  Se4       1.0  0.25310804889966493  0.7468919904473081  0.7468919582350658  1.0000
  Se  Se5       1.0  0.25310806200343855  0.7468919427523958  0.25310809323982786  1.0000
  Se  Se6       1.0  0.7468919916553792  0.2531080525478355  0.746891941427487  1.0000
