data_image0
_chemical_formula_structural       Te2RhO6
_chemical_formula_sum              "Te2 Rh1 O6"
_cell_length_a       5.474556229117207
_cell_length_b       5.474555949899878
_cell_length_c       5.474555967916934
_cell_angle_alpha    59.999999434539546
_cell_angle_beta     59.999999613707494
_cell_angle_gamma    59.99999686275494

_space_group_name_H-M_alt    "P 1"
_space_group_IT_number       1

loop_
  _space_group_symop_operation_xyz
  'x, y, z'

loop_
  _atom_site_type_symbol
  _atom_site_label
  _atom_site_symmetry_multiplicity
  _atom_site_fract_x
  _atom_site_fract_y
  _atom_site_fract_z
  _atom_site_occupancy
  Te  Te1       1.0  0.2500016203778628  0.24999684080344603  0.2500008042976665  1.0000
  Te  Te2       1.0  0.7499987911702239  0.7500023793501103  0.7499982316291713  1.0000
  Rh  Rh1       1.0  0.9999999658467998  5.816611986657629e-08  4.096587312444428e-08  1.0000
  O   O1        1.0  0.24847930287256922  0.24847735948573327  0.7515215788029623  1.0000
  O   O2        1.0  0.7515204473872675  0.7515229143694584  0.24847892497908805  1.0000
  O   O3        1.0  0.751521565252507  0.24847729860248496  0.2484794124269932  1.0000
  O   O4        1.0  0.24847862775582455  0.7515226531018834  0.7515207223553808  1.0000
  O   O5        1.0  0.24847822083262644  0.7515224483898317  0.2484784460642261  1.0000
  O   O6        1.0  0.7515214545993691  0.24847806260415425  0.7515218596578895  1.0000
