data_image0
_chemical_formula_structural       Te2RuO6
_chemical_formula_sum              "Te2 Ru1 O6"
_cell_length_a       5.506637851508774
_cell_length_b       5.506637804427576
_cell_length_c       5.506637716053051
_cell_angle_alpha    60.000000425827594
_cell_angle_beta     60.00000104420902
_cell_angle_gamma    59.999998786615535

_space_group_name_H-M_alt    "P 1"
_space_group_IT_number       1

loop_
  _space_group_symop_operation_xyz
  'x, y, z'

loop_
  _atom_site_type_symbol
  _atom_site_label
  _atom_site_symmetry_multiplicity
  _atom_site_fract_x
  _atom_site_fract_y
  _atom_site_fract_z
  _atom_site_occupancy
  Te  Te1       1.0  0.2499993995124529  0.25000025917596536  0.2499996373500488  1.0000
  Te  Te2       1.0  0.7499992620461712  0.7499990716242841  0.7500019463368738  1.0000
  Ru  Ru1       1.0  0.9999999770828525  0.9999999555175078  6.638764307387023e-08  1.0000
  O   O1        1.0  0.2431880118206167  0.2431879691453143  0.7568122029592881  1.0000
  O   O2        1.0  0.7568120831547267  0.756812031116426  0.24318743218938388  1.0000
  O   O3        1.0  0.7568124096700166  0.24318871515843835  0.24318722970542872  1.0000
  O   O4        1.0  0.2431881394182801  0.7568118099967056  0.7568121974185427  1.0000
  O   O5        1.0  0.2431885077304226  0.7568121357779688  0.2431874363751173  1.0000
  O   O6        1.0  0.7568121857333068  0.24318807577560098  0.7568118338352317  1.0000
