data_image0
_chemical_formula_structural       Te2SiO6
_chemical_formula_sum              "Te2 Si1 O6"
_cell_length_a       5.260585997173747
_cell_length_b       5.260585611602389
_cell_length_c       5.260585754005236
_cell_angle_alpha    59.999999365556725
_cell_angle_beta     59.99999834604841
_cell_angle_gamma    59.99999926154108

_space_group_name_H-M_alt    "P 1"
_space_group_IT_number       1

loop_
  _space_group_symop_operation_xyz
  'x, y, z'

loop_
  _atom_site_type_symbol
  _atom_site_label
  _atom_site_symmetry_multiplicity
  _atom_site_fract_x
  _atom_site_fract_y
  _atom_site_fract_z
  _atom_site_occupancy
  Te  Te1       1.0  0.249999772443838  0.2500004085394673  0.24999970876163566  1.0000
  Te  Te2       1.0  0.7499996641506113  0.7499994212997386  0.7500002276167617  1.0000
  Si  Si1       1.0  3.294789942437305e-08  0.9999999604213976  2.4225569602157922e-08  1.0000
  O   O1        1.0  0.23816371884056362  0.23816392475166548  0.7618362539230373  1.0000
  O   O2        1.0  0.7618364091114797  0.7618360238233679  0.2381639218235627  1.0000
  O   O3        1.0  0.761836244735519  0.2381639853638251  0.2381636270974955  1.0000
  O   O4        1.0  0.2381640889685841  0.7618360703062531  0.7618362952781688  1.0000
  O   O5        1.0  0.23816394510634722  0.7618361835219825  0.23816369716620744  1.0000
  O   O6        1.0  0.761836174328064  0.23816398157128915  0.7618362072983383  1.0000
