data_image0
_chemical_formula_structural       Te2SO6
_chemical_formula_sum              "Te2 S1 O6"
_cell_length_a       5.335306652966113
_cell_length_b       5.335306666343748
_cell_length_c       5.335306444920703
_cell_angle_alpha    60.00000069794464
_cell_angle_beta     59.99999903386557
_cell_angle_gamma    59.999998035259054

_space_group_name_H-M_alt    "P 1"
_space_group_IT_number       1

loop_
  _space_group_symop_operation_xyz
  'x, y, z'

loop_
  _atom_site_type_symbol
  _atom_site_label
  _atom_site_symmetry_multiplicity
  _atom_site_fract_x
  _atom_site_fract_y
  _atom_site_fract_z
  _atom_site_occupancy
  Te  Te1       1.0  0.24999975310191963  0.250000052968264  0.2500001659383475  1.0000
  Te  Te2       1.0  0.7499998681689513  0.7499998191637793  0.7499999621523351  1.0000
  S   S1        1.0  2.0986204444703202e-08  3.4433208659280334e-08  0.9999999704159863  1.0000
  O   O1        1.0  0.22815293563392605  0.22815297698149897  0.7718470227217897  1.0000
  O   O2        1.0  0.7718471260737446  0.7718469892679719  0.22815300677936365  1.0000
  O   O3        1.0  0.7718471398877176  0.22815291730932846  0.22815292263012277  1.0000
  O   O4        1.0  0.22815303573817153  0.7718470902599907  0.7718470629895137  1.0000
  O   O5        1.0  0.22815296577459065  0.7718470645337495  0.22815287697058034  1.0000
  O   O6        1.0  0.771847155174541  0.22815304863074573  0.7718470044689708  1.0000
