data_image0
_chemical_formula_structural       Te2SiSe6
_chemical_formula_sum              "Te2 Si1 Se6"
_cell_length_a       6.588485141675466
_cell_length_b       6.58848507303288
_cell_length_c       6.588484784512966
_cell_angle_alpha    60.00000179078197
_cell_angle_beta     60.00000159604886
_cell_angle_gamma    60.00000034759388

_space_group_name_H-M_alt    "P 1"
_space_group_IT_number       1

loop_
  _space_group_symop_operation_xyz
  'x, y, z'

loop_
  _atom_site_type_symbol
  _atom_site_label
  _atom_site_symmetry_multiplicity
  _atom_site_fract_x
  _atom_site_fract_y
  _atom_site_fract_z
  _atom_site_occupancy
  Te  Te1       1.0  0.24999981577799987  0.24999991619346873  0.25000021894244656  1.0000
  Te  Te2       1.0  0.7499999642213553  0.7500001538243607  0.7499998299719658  1.0000
  Si  Si1       1.0  2.4536455554084043e-08  0.9999999999999999  1.3919692306716467e-09  1.0000
  Se  Se1       1.0  0.2565965017720022  0.25659639970338827  0.7434035351982451  1.0000
  Se  Se2       1.0  0.7434035396691752  0.7434035011529702  0.25659655105497237  1.0000
  Se  Se3       1.0  0.7434035982256945  0.2565964024734633  0.2565964660776316  1.0000
  Se  Se4       1.0  0.25659647684900794  0.7434036340838533  0.7434034489937634  1.0000
  Se  Se5       1.0  0.2565965116202335  0.7434035221566866  0.2565964242027482  1.0000
  Se  Se6       1.0  0.7434035754402385  0.2565964679276989  0.7434035141834262  1.0000
