data_image0
_chemical_formula_structural       Te2SnSe6
_chemical_formula_sum              "Te2 Sn1 Se6"
_cell_length_a       7.0525021350735475
_cell_length_b       7.052502202920933
_cell_length_c       7.05250236222462
_cell_angle_alpha    59.999999000352624
_cell_angle_beta     59.99999965219568
_cell_angle_gamma    59.99999792239478

_space_group_name_H-M_alt    "P 1"
_space_group_IT_number       1

loop_
  _space_group_symop_operation_xyz
  'x, y, z'

loop_
  _atom_site_type_symbol
  _atom_site_label
  _atom_site_symmetry_multiplicity
  _atom_site_fract_x
  _atom_site_fract_y
  _atom_site_fract_z
  _atom_site_occupancy
  Te  Te1       1.0  0.2500000173842842  0.24999993326573394  0.25000006226258087  1.0000
  Te  Te2       1.0  0.7500000460321123  0.7499998918375558  0.7500000034522294  1.0000
  Sn  Sn1       1.0  3.705061759183768e-08  0.9999997169324989  6.629098542315431e-08  1.0000
  Se  Se1       1.0  0.3125393572959533  0.3125392982110923  0.6874608091517771  1.0000
  Se  Se2       1.0  0.6874606980586044  0.6874609784109095  0.3125391822999841  1.0000
  Se  Se3       1.0  0.6874606980660329  0.31253936158451084  0.3125392814388131  1.0000
  Se  Se4       1.0  0.31253915256178383  0.6874608612025721  0.6874607159333079  1.0000
  Se  Se5       1.0  0.31253929171769673  0.6874606566355408  0.31253916276846766  1.0000
  Se  Se6       1.0  0.6874607128696182  0.31253930565997506  0.6874607347325549  1.0000
