data_image0
_chemical_formula_structural       Te2SeS6
_chemical_formula_sum              "Te2 Se1 S6"
_cell_length_a       6.632657142804314
_cell_length_b       6.632656888620497
_cell_length_c       6.632657211906737
_cell_angle_alpha    59.9999985074395
_cell_angle_beta     59.99999736642483
_cell_angle_gamma    59.999998681935224

_space_group_name_H-M_alt    "P 1"
_space_group_IT_number       1

loop_
  _space_group_symop_operation_xyz
  'x, y, z'

loop_
  _atom_site_type_symbol
  _atom_site_label
  _atom_site_symmetry_multiplicity
  _atom_site_fract_x
  _atom_site_fract_y
  _atom_site_fract_z
  _atom_site_occupancy
  Te  Te1       1.0  0.24999994328993613  0.25000010139704304  0.25000010684514995  1.0000
  Te  Te2       1.0  0.7499998794307371  0.749999957042098  0.7500001919142888  1.0000
  Se  Se1       1.0  0.999999949126786  0.9999999593761775  6.685619822472928e-08  1.0000
  S   S1        1.0  0.24534917257024977  0.24534902400046418  0.7546508808204945  1.0000
  S   S2        1.0  0.7546509319370894  0.7546509254929703  0.2453490872724587  1.0000
  S   S3        1.0  0.7546510734549051  0.24534906127540543  0.2453489363513652  1.0000
  S   S4        1.0  0.24534918346397655  0.7546508383615194  0.7546508658795251  1.0000
  S   S5        1.0  0.24534904648358755  0.7546509920669595  0.24534892888184265  1.0000
  S   S6        1.0  0.7546508260542565  0.24534916239212212  0.7546509230515814  1.0000
