data_image0
_chemical_formula_structural       Te2SeO6
_chemical_formula_sum              "Te2 Se1 O6"
_cell_length_a       5.345155784106908
_cell_length_b       5.345155777990241
_cell_length_c       5.345155845934106
_cell_angle_alpha    59.99999962881666
_cell_angle_beta     60.00000077689928
_cell_angle_gamma    59.99999995486134

_space_group_name_H-M_alt    "P 1"
_space_group_IT_number       1

loop_
  _space_group_symop_operation_xyz
  'x, y, z'

loop_
  _atom_site_type_symbol
  _atom_site_label
  _atom_site_symmetry_multiplicity
  _atom_site_fract_x
  _atom_site_fract_y
  _atom_site_fract_z
  _atom_site_occupancy
  Te  Te1       1.0  0.24999947166867378  0.2500003146908997  0.2500000281023846  1.0000
  Te  Te2       1.0  0.7499999781469693  0.7499998579882206  0.7500002723333802  1.0000
  Se  Se1       1.0  2.212691904766998e-08  0.9999999725041903  3.823064948256926e-08  1.0000
  O   O1        1.0  0.2445028219993908  0.24450277541002854  0.7554972061605312  1.0000
  O   O2        1.0  0.755497377240826  0.755497067319378  0.24450270119423143  1.0000
  O   O3        1.0  0.7554973720861201  0.24450290487367268  0.2445026768873759  1.0000
  O   O4        1.0  0.24450277595885814  0.7554971303264003  0.7554972833059598  1.0000
  O   O5        1.0  0.24450284047271473  0.7554971781061105  0.2445027419230451  1.0000
  O   O6        1.0  0.7554973312492085  0.24450278606312173  0.7554970866664529  1.0000
