data_image0
_chemical_formula_structural       Te2TiS6
_chemical_formula_sum              "Te2 Ti1 S6"
_cell_length_a       6.425306210557841
_cell_length_b       6.425306109336793
_cell_length_c       6.425305977155576
_cell_angle_alpha    59.99999957369768
_cell_angle_beta     59.99999969864584
_cell_angle_gamma    59.99999884799504

_space_group_name_H-M_alt    "P 1"
_space_group_IT_number       1

loop_
  _space_group_symop_operation_xyz
  'x, y, z'

loop_
  _atom_site_type_symbol
  _atom_site_label
  _atom_site_symmetry_multiplicity
  _atom_site_fract_x
  _atom_site_fract_y
  _atom_site_fract_z
  _atom_site_occupancy
  Te  Te1       1.0  0.24999962837377515  0.2500001118440873  0.250000084716513  1.0000
  Te  Te2       1.0  0.7500003102014539  0.7500000229274376  0.7500000652095569  1.0000
  Ti  Ti1       1.0  0.9999999962064504  0.9999999790326042  0.9999999968170117  1.0000
  S   S1        1.0  0.26009748142607736  0.26009763642000827  0.7399025017561194  1.0000
  S   S2        1.0  0.7399023905127398  0.7399023801716509  0.26009750712617385  1.0000
  S   S3        1.0  0.7399025835328097  0.26009756031246906  0.26009747664292515  1.0000
  S   S4        1.0  0.2600974165274384  0.739902460091443  0.7399024647161783  1.0000
  S   S5        1.0  0.26009761386258706  0.7399023966721721  0.26009750738245385  1.0000
  S   S6        1.0  0.7399025745707657  0.26009745218031777  0.7399024022206162  1.0000
