data_image0
_chemical_formula_structural       Te2TiSe6
_chemical_formula_sum              "Te2 Ti1 Se6"
_cell_length_a       6.627666152343751
_cell_length_b       6.6276664514516614
_cell_length_c       6.627666098823679
_cell_angle_alpha    60.00000053815598
_cell_angle_beta     60.000000085611966
_cell_angle_gamma    60.00000199910921

_space_group_name_H-M_alt    "P 1"
_space_group_IT_number       1

loop_
  _space_group_symop_operation_xyz
  'x, y, z'

loop_
  _atom_site_type_symbol
  _atom_site_label
  _atom_site_symmetry_multiplicity
  _atom_site_fract_x
  _atom_site_fract_y
  _atom_site_fract_z
  _atom_site_occupancy
  Te  Te1       1.0  0.2500000386153455  0.24999985202976577  0.25000025127980946  1.0000
  Te  Te2       1.0  0.7500000944920376  0.749999975568893  0.7500002137817772  1.0000
  Ti  Ti1       1.0  0.9999999771576028  0.9999999796727947  3.0637762028803815e-08  1.0000
  Se  Se1       1.0  0.26113371840201327  0.2611338096331262  0.7388661926519959  1.0000
  Se  Se2       1.0  0.7388662248671907  0.7388662581961406  0.26113371912400635  1.0000
  Se  Se3       1.0  0.7388662153503744  0.2611337607416666  0.2611336526779597  1.0000
  Se  Se4       1.0  0.261133656873339  0.7388663477420108  0.738866155096268  1.0000
  Se  Se5       1.0  0.26113375756432466  0.7388662782665513  0.2611336431936229  1.0000
  Se  Se6       1.0  0.7388663168139786  0.2611337359728143  0.7388661453284818  1.0000
