data_image0
_chemical_formula_structural       Te2TiO6
_chemical_formula_sum              "Te2 Ti1 O6"
_cell_length_a       5.337437562562148
_cell_length_b       5.337437577752438
_cell_length_c       5.337437524939664
_cell_angle_alpha    59.999999557301464
_cell_angle_beta     60.00000010854496
_cell_angle_gamma    59.999999912419824

_space_group_name_H-M_alt    "P 1"
_space_group_IT_number       1

loop_
  _space_group_symop_operation_xyz
  'x, y, z'

loop_
  _atom_site_type_symbol
  _atom_site_label
  _atom_site_symmetry_multiplicity
  _atom_site_fract_x
  _atom_site_fract_y
  _atom_site_fract_z
  _atom_site_occupancy
  Te  Te1       1.0  0.2500009315368394  0.24999919103065057  0.2499996798857292  1.0000
  Te  Te2       1.0  0.7500000356235813  0.7500000283469184  0.7500003137845406  1.0000
  Ti  Ti1       1.0  4.6327481361176086e-08  0.9999999908214765  9.528894513122509e-09  1.0000
  O   O1        1.0  0.24834819815670778  0.24834823444425153  0.751651831680971  1.0000
  O   O2        1.0  0.7516513441332295  0.7516522286232223  0.2483481158098313  1.0000
  O   O3        1.0  0.7516516737239606  0.24834831034205254  0.2483481356675826  1.0000
  O   O4        1.0  0.24834802527568525  0.7516518383610005  0.7516517201567788  1.0000
  O   O5        1.0  0.2483482914900632  0.7516520995160051  0.24834810773071248  1.0000
  O   O6        1.0  0.7516514589062229  0.24834807672261455  0.7516520852127494  1.0000
