data_image0
_chemical_formula_structural       Te2VS6
_chemical_formula_sum              "Te2 V1 S6"
_cell_length_a       6.499303359512391
_cell_length_b       6.499303230639538
_cell_length_c       6.499303207509739
_cell_angle_alpha    59.99999832467135
_cell_angle_beta     59.999999338808564
_cell_angle_gamma    60.00000311851147

_space_group_name_H-M_alt    "P 1"
_space_group_IT_number       1

loop_
  _space_group_symop_operation_xyz
  'x, y, z'

loop_
  _atom_site_type_symbol
  _atom_site_label
  _atom_site_symmetry_multiplicity
  _atom_site_fract_x
  _atom_site_fract_y
  _atom_site_fract_z
  _atom_site_occupancy
  Te  Te1       1.0  0.25000014939230036  0.24999996331665264  0.2499998200334687  1.0000
  Te  Te2       1.0  0.75000014521296  0.7499998767589626  0.7500000274525208  1.0000
  V   V1        1.0  2.6203382487025576e-09  0.9999999868090264  0.9999999775900412  1.0000
  S   S1        1.0  0.24768620827874024  0.24768652645978367  0.752313683900809  1.0000
  S   S2        1.0  0.7523135071313871  0.7523136867319276  0.2476864728006483  1.0000
  S   S3        1.0  0.7523136090109853  0.24768642533326252  0.24768636704668626  1.0000
  S   S4        1.0  0.24768631222618182  0.7523135221545509  0.7523137303528656  1.0000
  S   S5        1.0  0.2476864463320917  0.7523136427413064  0.2476863167752335  1.0000
  S   S6        1.0  0.75231363665127  0.2476863631636875  0.7523136120748224  1.0000
