data_image0
_chemical_formula_structural       Te2VO6
_chemical_formula_sum              "Te2 V1 O6"
_cell_length_a       5.357514744898611
_cell_length_b       5.357514784393562
_cell_length_c       5.357514744709743
_cell_angle_alpha    60.000000394415686
_cell_angle_beta     60.00000032186632
_cell_angle_gamma    59.9999994976581

_space_group_name_H-M_alt    "P 1"
_space_group_IT_number       1

loop_
  _space_group_symop_operation_xyz
  'x, y, z'

loop_
  _atom_site_type_symbol
  _atom_site_label
  _atom_site_symmetry_multiplicity
  _atom_site_fract_x
  _atom_site_fract_y
  _atom_site_fract_z
  _atom_site_occupancy
  Te  Te1       1.0  0.2500001273595019  0.24999992968964133  0.24999978527034955  1.0000
  Te  Te2       1.0  0.7499999250670066  0.7499999445190852  0.7500001113497351  1.0000
  V   V1        1.0  0.9999999876995219  4.5720635545348e-09  2.2529578164824193e-08  1.0000
  O   O1        1.0  0.24701609641902494  0.24701599791307285  0.7529840386931411  1.0000
  O   O2        1.0  0.7529838988791213  0.7529840088854937  0.2470160161825992  1.0000
  O   O3        1.0  0.7529839336837426  0.24701612536154038  0.24701599226684556  1.0000
  O   O4        1.0  0.24701604979202346  0.7529839363017872  0.7529839925577401  1.0000
  O   O5        1.0  0.24701602703262482  0.752983993208869  0.24701605394402779  1.0000
  O   O6        1.0  0.7529839369147785  0.24701607531255404  0.7529839801460446  1.0000
