data_image0
_chemical_formula_structural       Te2WS6
_chemical_formula_sum              "Te2 W1 S6"
_cell_length_a       6.55947294240772
_cell_length_b       6.559472829838959
_cell_length_c       6.5594729975705635
_cell_angle_alpha    59.99999924806313
_cell_angle_beta     59.99999773405449
_cell_angle_gamma    59.99999852208486

_space_group_name_H-M_alt    "P 1"
_space_group_IT_number       1

loop_
  _space_group_symop_operation_xyz
  'x, y, z'

loop_
  _atom_site_type_symbol
  _atom_site_label
  _atom_site_symmetry_multiplicity
  _atom_site_fract_x
  _atom_site_fract_y
  _atom_site_fract_z
  _atom_site_occupancy
  Te  Te1       1.0  0.2500001176649246  0.24999989813080953  0.2500001243908232  1.0000
  Te  Te2       1.0  0.7499999905169606  0.7499999632604727  0.750000197398503  1.0000
  W   W1        1.0  0.9999999809564388  0.9999999831957469  0.999999966090475  1.0000
  S   S1        1.0  0.24960946403930925  0.24960950975477333  0.7503904565428487  1.0000
  S   S2        1.0  0.7503904736503237  0.7503906149031327  0.2496093813241445  1.0000
  S   S3        1.0  0.7503905053207047  0.24960955925402373  0.24960940570262158  1.0000
  S   S4        1.0  0.24960939316214692  0.7503904981868723  0.7503905859941071  1.0000
  S   S5        1.0  0.24960950039441493  0.7503905181648951  0.24960945640749865  1.0000
  S   S6        1.0  0.7503905646480316  0.24960945152045738  0.7503904333821807  1.0000
