data_image0
_chemical_formula_structural       Te2WSe6
_chemical_formula_sum              "Te2 W1 Se6"
_cell_length_a       6.70114134983809
_cell_length_b       6.701141348116436
_cell_length_c       6.7011415334012225
_cell_angle_alpha    60.0000016298565
_cell_angle_beta     60.000001038775125
_cell_angle_gamma    59.999999610125656

_space_group_name_H-M_alt    "P 1"
_space_group_IT_number       1

loop_
  _space_group_symop_operation_xyz
  'x, y, z'

loop_
  _atom_site_type_symbol
  _atom_site_label
  _atom_site_symmetry_multiplicity
  _atom_site_fract_x
  _atom_site_fract_y
  _atom_site_fract_z
  _atom_site_occupancy
  Te  Te1       1.0  0.2500000477070148  0.24999995273722447  0.2500001042585622  1.0000
  Te  Te2       1.0  0.7500000446930021  0.7499998691776629  0.7499999700053986  1.0000
  W   W1        1.0  0.9999999751622913  7.310665887449722e-09  6.845484359470011e-08  1.0000
  Se  Se1       1.0  0.2566027259740288  0.2566028511266026  0.7433972032332411  1.0000
  Se  Se2       1.0  0.7433971425340765  0.7433972961128444  0.25660273823883034  1.0000
  Se  Se3       1.0  0.7433971367291923  0.25660280541605385  0.2566027810135202  1.0000
  Se  Se4       1.0  0.2566028718431022  0.7433971956101072  0.7433971948710432  1.0000
  Se  Se5       1.0  0.2566028492730951  0.7433971778354397  0.25660276013738037  1.0000
  Se  Se6       1.0  0.7433972002364573  0.2566028451227133  0.7433971813279928  1.0000
