data_image0
_chemical_formula_structural       Te2ZrSe6
_chemical_formula_sum              "Te2 Zr1 Se6"
_cell_length_a       6.627989635820107
_cell_length_b       6.627989603941836
_cell_length_c       6.627990043529133
_cell_angle_alpha    59.99999755259734
_cell_angle_beta     59.99999527576624
_cell_angle_gamma    59.999992272259945

_space_group_name_H-M_alt    "P 1"
_space_group_IT_number       1

loop_
  _space_group_symop_operation_xyz
  'x, y, z'

loop_
  _atom_site_type_symbol
  _atom_site_label
  _atom_site_symmetry_multiplicity
  _atom_site_fract_x
  _atom_site_fract_y
  _atom_site_fract_z
  _atom_site_occupancy
  Te  Te1       1.0  0.2500000473212808  0.2499999999766427  0.24999982568436907  1.0000
  Te  Te2       1.0  0.7499994753663576  0.7500001181915862  0.7499998945525709  1.0000
  Zr  Zr1       1.0  0.9999999930494967  0.9999999685867601  1.640221618031247e-07  1.0000
  Se  Se1       1.0  0.2800905105015902  0.2800902078870725  0.7199096974114578  1.0000
  Se  Se2       1.0  0.7199096344353957  0.7199099250638233  0.28009035759952045  1.0000
  Se  Se3       1.0  0.7199095525787604  0.28009037404881243  0.2800904480334124  1.0000
  Se  Se4       1.0  0.2800907956385506  0.7199091177023782  0.7199097354120716  1.0000
  Se  Se5       1.0  0.28009047614867616  0.7199095265642553  0.28009039243880507  1.0000
  Se  Se6       1.0  0.7199095287090487  0.28009076530069277  0.7199094841744414  1.0000
