data_image0
_chemical_formula_structural       Te2ZrO6
_chemical_formula_sum              "Te2 Zr1 O6"
_cell_length_a       5.393734280699819
_cell_length_b       5.393734201080585
_cell_length_c       5.39373428180965
_cell_angle_alpha    59.999999913367844
_cell_angle_beta     60.000000327571684
_cell_angle_gamma    60.000000575443636

_space_group_name_H-M_alt    "P 1"
_space_group_IT_number       1

loop_
  _space_group_symop_operation_xyz
  'x, y, z'

loop_
  _atom_site_type_symbol
  _atom_site_label
  _atom_site_symmetry_multiplicity
  _atom_site_fract_x
  _atom_site_fract_y
  _atom_site_fract_z
  _atom_site_occupancy
  Te  Te1       1.0  0.24999997246363986  0.2499999623755692  0.2500000894362676  1.0000
  Te  Te2       1.0  0.7499999191606087  0.7500000937586602  0.7499999694376587  1.0000
  Zr  Zr1       1.0  0.9999999608159578  3.406021169934861e-08  0.9999999988539091  1.0000
  O   O1        1.0  0.26038502343225095  0.2603849137319619  0.7396150084421811  1.0000
  O   O2        1.0  0.7396150197374929  0.7396150538457174  0.26038497444119857  1.0000
  O   O3        1.0  0.7396150408664682  0.2603849309405596  0.2603849923199185  1.0000
  O   O4        1.0  0.2603850172890043  0.7396150366371198  0.7396149997566245  1.0000
  O   O5        1.0  0.26038497806700384  0.7396150145873851  0.2603849636245826  1.0000
  O   O6        1.0  0.7396150800884685  0.2603849529902944  0.7396150228899513  1.0000
