data_image0
_chemical_formula_structural       Ti2AuBr6
_chemical_formula_sum              "Ti2 Au1 Br6"
_cell_length_a       6.878305664990513
_cell_length_b       6.878305839034078
_cell_length_c       6.878305862957926
_cell_angle_alpha    59.99999939297475
_cell_angle_beta     60.000000284924106
_cell_angle_gamma    59.9999990180632

_space_group_name_H-M_alt    "P 1"
_space_group_IT_number       1

loop_
  _space_group_symop_operation_xyz
  'x, y, z'

loop_
  _atom_site_type_symbol
  _atom_site_label
  _atom_site_symmetry_multiplicity
  _atom_site_fract_x
  _atom_site_fract_y
  _atom_site_fract_z
  _atom_site_occupancy
  Ti  Ti1       1.0  0.24999993463913522  0.25000001509195874  0.24999997689631193  1.0000
  Ti  Ti2       1.0  0.7500000314836086  0.7499999669298731  0.7499998924249973  1.0000
  Au  Au1       1.0  0.999999991708048  0.9999999946582271  3.589378975130833e-08  1.0000
  Br  Br1       1.0  0.2598465143874373  0.25984654755843317  0.7401534831447415  1.0000
  Br  Br2       1.0  0.7401534708620592  0.7401534878811236  0.2598465578043596  1.0000
  Br  Br3       1.0  0.74015350377503  0.25984650817727845  0.25984650202737897  1.0000
  Br  Br4       1.0  0.25984655281441216  0.7401534542580503  0.7401535135846298  1.0000
  Br  Br5       1.0  0.259846482647338  0.7401535108190129  0.25984652970970873  1.0000
  Br  Br6       1.0  0.7401535251213668  0.2598465174981798  0.7401535108102025  1.0000
