data_image0
_chemical_formula_structural       Ti2AuI6
_chemical_formula_sum              "Ti2 Au1 I6"
_cell_length_a       7.5560568222104765
_cell_length_b       7.556056780089797
_cell_length_c       7.556056796973339
_cell_angle_alpha    59.999999778363424
_cell_angle_beta     60.00000063868543
_cell_angle_gamma    59.99999961638644

_space_group_name_H-M_alt    "P 1"
_space_group_IT_number       1

loop_
  _space_group_symop_operation_xyz
  'x, y, z'

loop_
  _atom_site_type_symbol
  _atom_site_label
  _atom_site_symmetry_multiplicity
  _atom_site_fract_x
  _atom_site_fract_y
  _atom_site_fract_z
  _atom_site_occupancy
  Ti  Ti1       1.0  0.2500000367092846  0.25000001296093266  0.24999998534812806  1.0000
  Ti  Ti2       1.0  0.7500000086350652  0.7500000453663119  0.7500000061959043  1.0000
  Au  Au1       1.0  0.9999999980242279  0.9999999967582435  0.9999999681992824  1.0000
  I   I1        1.0  0.26143972371202373  0.26143971981330183  0.7385602913006319  1.0000
  I   I2        1.0  0.7385602945277172  0.7385602639535391  0.2614397113726582  1.0000
  I   I3        1.0  0.7385602756131041  0.26143969968586483  0.2614397321229019  1.0000
  I   I4        1.0  0.26143968779760185  0.7385602743557063  0.7385602962103324  1.0000
  I   I5        1.0  0.2614397187418944  0.7385602793487561  0.26143972887733125  1.0000
  I   I6        1.0  0.7385602566161424  0.26143970928072024  0.7385602822179602  1.0000
