data_image0
_chemical_formula_structural       Ti2AuCl6
_chemical_formula_sum              "Ti2 Au1 Cl6"
_cell_length_a       6.595137672150367
_cell_length_b       6.5951376520851905
_cell_length_c       6.595137631405794
_cell_angle_alpha    60.00000119449921
_cell_angle_beta     60.00000037767673
_cell_angle_gamma    59.99999975798325

_space_group_name_H-M_alt    "P 1"
_space_group_IT_number       1

loop_
  _space_group_symop_operation_xyz
  'x, y, z'

loop_
  _atom_site_type_symbol
  _atom_site_label
  _atom_site_symmetry_multiplicity
  _atom_site_fract_x
  _atom_site_fract_y
  _atom_site_fract_z
  _atom_site_occupancy
  Ti  Ti1       1.0  0.2500000323566205  0.24999989783791285  0.25000005007277143  1.0000
  Ti  Ti2       1.0  0.7500000168286671  0.7499998922172494  0.7500001167637234  1.0000
  Au  Au1       1.0  8.754180730172119e-09  0.9999999999999997  0.9999999789439553  1.0000
  Cl  Cl1       1.0  0.25890091886815886  0.2589009591847571  0.7410990617174853  1.0000
  Cl  Cl2       1.0  0.7410990366335927  0.7410991224260223  0.25890090459297627  1.0000
  Cl  Cl3       1.0  0.7410990782478317  0.25890096841805965  0.2589008897645595  1.0000
  Cl  Cl4       1.0  0.2589008927110494  0.7410990983363823  0.7410990565340144  1.0000
  Cl  Cl5       1.0  0.2589009158748187  0.7410991261164049  0.25890087725010646  1.0000
  Cl  Cl6       1.0  0.7410991026752561  0.25890092392465724  0.7410990687722462  1.0000
