data_image0
_chemical_formula_structural       Ti2BeI6
_chemical_formula_sum              "Ti2 Be1 I6"
_cell_length_a       7.333397746050828
_cell_length_b       7.3333978129515645
_cell_length_c       7.3333977170280455
_cell_angle_alpha    60.000001229423816
_cell_angle_beta     60.000000197890955
_cell_angle_gamma    60.00000112763772

_space_group_name_H-M_alt    "P 1"
_space_group_IT_number       1

loop_
  _space_group_symop_operation_xyz
  'x, y, z'

loop_
  _atom_site_type_symbol
  _atom_site_label
  _atom_site_symmetry_multiplicity
  _atom_site_fract_x
  _atom_site_fract_y
  _atom_site_fract_z
  _atom_site_occupancy
  Ti  Ti1       1.0  0.24999995936764033  0.25000003300002277  0.24999999337804016  1.0000
  Ti  Ti2       1.0  0.7500000716041599  0.7499999152899584  0.7500001688732186  1.0000
  Be  Be1       1.0  1.6700919894519589e-09  0.9999999949897239  0.9999999675794823  1.0000
  I   I1        1.0  0.24622733636103714  0.24622745001063304  0.7537726142811599  1.0000
  I   I2        1.0  0.7537726241831707  0.7537725584026559  0.24622737039657308  1.0000
  I   I3        1.0  0.7537726559221455  0.24622740959386707  0.2462273225323853  1.0000
  I   I4        1.0  0.24622734202987362  0.7537726188605245  0.7537725925121591  1.0000
  I   I5        1.0  0.2462274239208302  0.7537726461366154  0.24622733533345947  1.0000
  I   I6        1.0  0.7537725763534919  0.24622737062713335  0.7537726430311036  1.0000
