data_image0
_chemical_formula_structural       Ti2BeCl6
_chemical_formula_sum              "Ti2 Be1 Cl6"
_cell_length_a       6.321231859899635
_cell_length_b       6.321231735390761
_cell_length_c       6.321231631107903
_cell_angle_alpha    60.000001822642545
_cell_angle_beta     60.0000014919167
_cell_angle_gamma    60.00000088339837

_space_group_name_H-M_alt    "P 1"
_space_group_IT_number       1

loop_
  _space_group_symop_operation_xyz
  'x, y, z'

loop_
  _atom_site_type_symbol
  _atom_site_label
  _atom_site_symmetry_multiplicity
  _atom_site_fract_x
  _atom_site_fract_y
  _atom_site_fract_z
  _atom_site_occupancy
  Ti  Ti1       1.0  0.2500000610347513  0.2500000598892625  0.24999984671039466  1.0000
  Ti  Ti2       1.0  0.7500000642388204  0.750000218417991  0.7500001322963952  1.0000
  Be  Be1       1.0  0.9999999794820604  0.9999999903124508  4.0289529099276595e-09  1.0000
  Cl  Cl1       1.0  0.24330339881660715  0.24330330221485572  0.7566966537806666  1.0000
  Cl  Cl2       1.0  0.7566966200715579  0.7566966157155693  0.24330331181988737  1.0000
  Cl  Cl3       1.0  0.7566966166377499  0.24330338432166124  0.24330337609169073  1.0000
  Cl  Cl4       1.0  0.24330327519171083  0.7566966188591959  0.7566966341425528  1.0000
  Cl  Cl5       1.0  0.2433034176265374  0.7566965267487255  0.24330335440805118  1.0000
  Cl  Cl6       1.0  0.7566965632903511  0.24330327493111104  0.756696694631315  1.0000
