data_image0
_chemical_formula_structural       Ti2BeF6
_chemical_formula_sum              "Ti2 Be1 F6"
_cell_length_a       5.120027603121681
_cell_length_b       5.120027317698899
_cell_length_c       5.120027456435352
_cell_angle_alpha    60.000000554767205
_cell_angle_beta     60.00000178072666
_cell_angle_gamma    60.00000043924485

_space_group_name_H-M_alt    "P 1"
_space_group_IT_number       1

loop_
  _space_group_symop_operation_xyz
  'x, y, z'

loop_
  _atom_site_type_symbol
  _atom_site_label
  _atom_site_symmetry_multiplicity
  _atom_site_fract_x
  _atom_site_fract_y
  _atom_site_fract_z
  _atom_site_occupancy
  Ti  Ti1       1.0  0.2500000998557112  0.24999993954942465  0.2500000337889817  1.0000
  Ti  Ti2       1.0  0.7499999697241165  0.7500001248328516  0.7499998514788198  1.0000
  Be  Be1       1.0  0.9999999656238469  2.8704804512832864e-08  6.741903444208693e-09  1.0000
  F   F1        1.0  0.23782719697575844  0.2378271665121651  0.7621728132921294  1.0000
  F   F2        1.0  0.7621727763352878  0.7621728213239655  0.23782725799197507  1.0000
  F   F3        1.0  0.7621728061058036  0.23782715335086668  0.2378272292201271  1.0000
  F   F4        1.0  0.23782720196833704  0.7621728249169952  0.762172770873129  1.0000
  F   F5        1.0  0.2378271818734305  0.7621727772767174  0.23782719861986823  1.0000
  F   F6        1.0  0.7621728100269326  0.2378271818546078  0.7621728113160865  1.0000
