data_image0
_chemical_formula_structural       Ti2BeBr6
_chemical_formula_sum              "Ti2 Be1 Br6"
_cell_length_a       6.677019251761398
_cell_length_b       6.677019061699285
_cell_length_c       6.677019263814368
_cell_angle_alpha    59.99999926852841
_cell_angle_beta     60.000000479697064
_cell_angle_gamma    59.99999937532216

_space_group_name_H-M_alt    "P 1"
_space_group_IT_number       1

loop_
  _space_group_symop_operation_xyz
  'x, y, z'

loop_
  _atom_site_type_symbol
  _atom_site_label
  _atom_site_symmetry_multiplicity
  _atom_site_fract_x
  _atom_site_fract_y
  _atom_site_fract_z
  _atom_site_occupancy
  Ti  Ti1       1.0  0.25000001640095193  0.2500000738201083  0.24999994564913153  1.0000
  Ti  Ti2       1.0  0.7500001576345323  0.7499998857891043  0.7500000778694801  1.0000
  Be  Be1       1.0  0.9999999993885772  1.8342689956462897e-09  2.78443881915609e-08  1.0000
  Br  Br1       1.0  0.24550515544461876  0.24550527709252412  0.7544947472198286  1.0000
  Br  Br2       1.0  0.7544948117473587  0.754494737544757  0.24550517697861118  1.0000
  Br  Br3       1.0  0.7544947717452124  0.24550526658826194  0.2455052066241678  1.0000
  Br  Br4       1.0  0.24550519500915152  0.7544948012428192  0.7544947421171041  1.0000
  Br  Br5       1.0  0.24550519325499937  0.7544947567007317  0.24550527673430017  1.0000
  Br  Br6       1.0  0.7544946880112315  0.24550519923994235  0.754494800649727  1.0000
