data_image0
_chemical_formula_structural       Ti2CoTe6
_chemical_formula_sum              "Ti2 Co1 Te6"
_cell_length_a       6.850270324716967
_cell_length_b       6.850270232496921
_cell_length_c       6.850270443968463
_cell_angle_alpha    59.999998784454434
_cell_angle_beta     59.9999982995889
_cell_angle_gamma    59.99999920689127

_space_group_name_H-M_alt    "P 1"
_space_group_IT_number       1

loop_
  _space_group_symop_operation_xyz
  'x, y, z'

loop_
  _atom_site_type_symbol
  _atom_site_label
  _atom_site_symmetry_multiplicity
  _atom_site_fract_x
  _atom_site_fract_y
  _atom_site_fract_z
  _atom_site_occupancy
  Ti  Ti1       1.0  0.25000008626054765  0.24999998246481286  0.24999997599392224  1.0000
  Ti  Ti2       1.0  0.7500000037055188  0.7500000350004697  0.7499999051516795  1.0000
  Co  Co1       1.0  0.9999999803859696  0.9999999678181923  7.261140346704381e-08  1.0000
  Te  Te1       1.0  0.25173157463280527  0.2517315238711958  0.7482684666368712  1.0000
  Te  Te2       1.0  0.7482684698884753  0.748268549018311  0.2517315233831295  1.0000
  Te  Te3       1.0  0.7482684037973834  0.2517315108655281  0.25173156422296405  1.0000
  Te  Te4       1.0  0.2517315738802145  0.7482684136300874  0.7482684691847836  1.0000
  Te  Te5       1.0  0.25173148068265566  0.7482684269171388  0.2517315770843289  1.0000
  Te  Te6       1.0  0.7482684261459478  0.2517315887602649  0.7482684461570223  1.0000
