data_image0
_chemical_formula_structural       Ti2CoS6
_chemical_formula_sum              "Ti2 Co1 S6"
_cell_length_a       5.802965630864877
_cell_length_b       5.80296534405247
_cell_length_c       5.8029654653681275
_cell_angle_alpha    59.99999975154005
_cell_angle_beta     59.99999949644075
_cell_angle_gamma    59.999998852682936

_space_group_name_H-M_alt    "P 1"
_space_group_IT_number       1

loop_
  _space_group_symop_operation_xyz
  'x, y, z'

loop_
  _atom_site_type_symbol
  _atom_site_label
  _atom_site_symmetry_multiplicity
  _atom_site_fract_x
  _atom_site_fract_y
  _atom_site_fract_z
  _atom_site_occupancy
  Ti  Ti1       1.0  0.24999994758943556  0.25000036364819467  0.24999973518003654  1.0000
  Ti  Ti2       1.0  0.7499999816581515  0.7499997549663998  0.7499998351028967  1.0000
  Co  Co1       1.0  6.81582761658062e-08  0.9999999387940491  7.579365157631103e-08  1.0000
  S   S1        1.0  0.2613537621535961  0.2613538259606481  0.7386461048093408  1.0000
  S   S2        1.0  0.7386462658448834  0.7386461575787464  0.2613538196708309  1.0000
  S   S3        1.0  0.7386462211320924  0.2613537637033053  0.26135390406379516  1.0000
  S   S4        1.0  0.26135377846715224  0.7386461438562901  0.7386463569432739  1.0000
  S   S5        1.0  0.2613538092423099  0.7386462992509057  0.26135381975725835  1.0000
  S   S6        1.0  0.7386461823354222  0.2613537159467425  0.7386463724857159  1.0000
