data_image0
_chemical_formula_structural       Ti2CrSe6
_chemical_formula_sum              "Ti2 Cr1 Se6"
_cell_length_a       6.2533619552980015
_cell_length_b       6.253361922581951
_cell_length_c       6.253361939690421
_cell_angle_alpha    60.00000013918353
_cell_angle_beta     60.000000986189356
_cell_angle_gamma    60.00000066368157

_space_group_name_H-M_alt    "P 1"
_space_group_IT_number       1

loop_
  _space_group_symop_operation_xyz
  'x, y, z'

loop_
  _atom_site_type_symbol
  _atom_site_label
  _atom_site_symmetry_multiplicity
  _atom_site_fract_x
  _atom_site_fract_y
  _atom_site_fract_z
  _atom_site_occupancy
  Ti  Ti1       1.0  0.2500001982223707  0.24999978182740237  0.24999970190799703  1.0000
  Ti  Ti2       1.0  0.7499997299574105  0.7500000838511325  0.7499998677184697  1.0000
  Cr  Cr1       1.0  0.9999999634982737  9.792691149736825e-09  4.8535593083337366e-08  1.0000
  Se  Se1       1.0  0.26885819624865903  0.26885813336327996  0.7311419207015788  1.0000
  Se  Se2       1.0  0.7311418142374981  0.731141967339848  0.2688582754370491  1.0000
  Se  Se3       1.0  0.7311419609189157  0.2688582008879331  0.26885813656607416  1.0000
  Se  Se4       1.0  0.2688581735086089  0.7311418880639661  0.7311418915376989  1.0000
  Se  Se5       1.0  0.2688581931056076  0.7311418277241019  0.26885810235514424  1.0000
  Se  Se6       1.0  0.7311417614279649  0.26885810846181046  0.7311420473026822  1.0000
