data_image0
_chemical_formula_structural       Ti2CO6
_chemical_formula_sum              "Ti2 C1 O6"
_cell_length_a       4.636678720496019
_cell_length_b       4.636678494081072
_cell_length_c       4.636678414044375
_cell_angle_alpha    60.00000279584136
_cell_angle_beta     60.000001100839675
_cell_angle_gamma    60.000000135811604

_space_group_name_H-M_alt    "P 1"
_space_group_IT_number       1

loop_
  _space_group_symop_operation_xyz
  'x, y, z'

loop_
  _atom_site_type_symbol
  _atom_site_label
  _atom_site_symmetry_multiplicity
  _atom_site_fract_x
  _atom_site_fract_y
  _atom_site_fract_z
  _atom_site_occupancy
  Ti  Ti1       1.0  0.250000093148209  0.2500000141885922  0.24999991246227948  1.0000
  Ti  Ti2       1.0  0.7500000045725669  0.7500001350157305  0.7499998889859522  1.0000
  C   C1        1.0  0.9999999903406871  0.9999999841514363  0.9999999847166259  1.0000
  O   O1        1.0  0.23076199220636534  0.23076203961945552  0.7692380046122597  1.0000
  O   O2        1.0  0.7692380364922343  0.7692378982706982  0.2307620124892128  1.0000
  O   O3        1.0  0.7692379989392305  0.23076195122913704  0.23076198340479276  1.0000
  O   O4        1.0  0.23076198608955403  0.7692380130752876  0.769238018600573  1.0000
  O   O5        1.0  0.23076196705628957  0.7692380131340902  0.2307619797085501  1.0000
  O   O6        1.0  0.7692379773973024  0.23076194588748306  0.7692381336512069  1.0000
