data_image0
_chemical_formula_structural       Ti2CoBr6
_chemical_formula_sum              "Ti2 Co1 Br6"
_cell_length_a       6.717528419441811
_cell_length_b       6.71752856669895
_cell_length_c       6.717528391786475
_cell_angle_alpha    60.000000969911355
_cell_angle_beta     59.99999983075389
_cell_angle_gamma    60.00000031932753

_space_group_name_H-M_alt    "P 1"
_space_group_IT_number       1

loop_
  _space_group_symop_operation_xyz
  'x, y, z'

loop_
  _atom_site_type_symbol
  _atom_site_label
  _atom_site_symmetry_multiplicity
  _atom_site_fract_x
  _atom_site_fract_y
  _atom_site_fract_z
  _atom_site_occupancy
  Ti  Ti1       1.0  0.25000009671449447  0.25000001740877786  0.24999986279106673  1.0000
  Ti  Ti2       1.0  0.7500000146459416  0.7499999865908656  0.7500001191912535  1.0000
  Co  Co1       1.0  0.9999999745972552  4.0110565424624913e-08  0.9999999703164484  1.0000
  Br  Br1       1.0  0.2519116748614512  0.2519117081895248  0.7480883003905737  1.0000
  Br  Br2       1.0  0.74808831690332  0.7480882575227612  0.2519116994989045  1.0000
  Br  Br3       1.0  0.7480882654040582  0.2519116901998125  0.2519117366263183  1.0000
  Br  Br4       1.0  0.25191167823048843  0.7480882755124738  0.7480882992374143  1.0000
  Br  Br5       1.0  0.25191172673609274  0.7480883253789175  0.2519117077869233  1.0000
  Br  Br6       1.0  0.7480882501302052  0.25191170049921696  0.7480883007303657  1.0000
