data_image0
_chemical_formula_structural       Ti2CoI6
_chemical_formula_sum              "Ti2 Co1 I6"
_cell_length_a       7.333645339662594
_cell_length_b       7.333645358610859
_cell_length_c       7.33364537786331
_cell_angle_alpha    59.99999975973011
_cell_angle_beta     60.000000170012676
_cell_angle_gamma    60.00000053489145

_space_group_name_H-M_alt    "P 1"
_space_group_IT_number       1

loop_
  _space_group_symop_operation_xyz
  'x, y, z'

loop_
  _atom_site_type_symbol
  _atom_site_label
  _atom_site_symmetry_multiplicity
  _atom_site_fract_x
  _atom_site_fract_y
  _atom_site_fract_z
  _atom_site_occupancy
  Ti  Ti1       1.0  0.2499999583216748  0.25000004528806496  0.24999998097118292  1.0000
  Ti  Ti2       1.0  0.7500000152915509  0.749999960510459  0.7500000476961678  1.0000
  Co  Co1       1.0  0.9999999937019013  3.798261635158992e-18  0.9999999881496876  1.0000
  I   I1        1.0  0.24864878962646794  0.24864879125005052  0.7513512061173254  1.0000
  I   I2        1.0  0.7513511737291723  0.7513511744676196  0.24864878772179824  1.0000
  I   I3        1.0  0.7513511986999518  0.248648830410935  0.24864881685840576  1.0000
  I   I4        1.0  0.24864880897975064  0.7513512054482296  0.7513511879268564  1.0000
  I   I5        1.0  0.24864884963168907  0.7513511869324259  0.24864878806751153  1.0000
  I   I6        1.0  0.7513512134592957  0.24864880550581414  0.7513511916324755  1.0000
