data_image0
_chemical_formula_structural       Ti2CuCl6
_chemical_formula_sum              "Ti2 Cu1 Cl6"
_cell_length_a       6.416078531596237
_cell_length_b       6.416078508669393
_cell_length_c       6.416078384246465
_cell_angle_alpha    60.00000036321753
_cell_angle_beta     60.000000365977925
_cell_angle_gamma    60.00000009016817

_space_group_name_H-M_alt    "P 1"
_space_group_IT_number       1

loop_
  _space_group_symop_operation_xyz
  'x, y, z'

loop_
  _atom_site_type_symbol
  _atom_site_label
  _atom_site_symmetry_multiplicity
  _atom_site_fract_x
  _atom_site_fract_y
  _atom_site_fract_z
  _atom_site_occupancy
  Ti  Ti1       1.0  0.24999999945064322  0.24999997311991665  0.25000003393432285  1.0000
  Ti  Ti2       1.0  0.7500000251290635  0.7499999308129596  0.7500000406060163  1.0000
  Cu  Cu1       1.0  0.9999999888930312  0.9999999847290539  0.9999999789000996  1.0000
  Cl  Cl1       1.0  0.25395191178024645  0.25395201297473163  0.7460480356709372  1.0000
  Cl  Cl2       1.0  0.7460480598782679  0.746048055120816  0.25395194584263553  1.0000
  Cl  Cl3       1.0  0.746048066192156  0.2539519212385093  0.2539519365178829  1.0000
  Cl  Cl4       1.0  0.25395197707380085  0.7460480724111758  0.7460480214775487  1.0000
  Cl  Cl5       1.0  0.2539519499575554  0.7460480732314209  0.25395193777108194  1.0000
  Cl  Cl6       1.0  0.7460480350443063  0.25395198722865364  0.7460480424471381  1.0000
