data_image0
_chemical_formula_structural       Ti2CrBr6
_chemical_formula_sum              "Ti2 Cr1 Br6"
_cell_length_a       6.785196521660744
_cell_length_b       6.785196586923682
_cell_length_c       6.785196408375593
_cell_angle_alpha    59.99999911040251
_cell_angle_beta     59.999999775876766
_cell_angle_gamma    60.000000090609674

_space_group_name_H-M_alt    "P 1"
_space_group_IT_number       1

loop_
  _space_group_symop_operation_xyz
  'x, y, z'

loop_
  _atom_site_type_symbol
  _atom_site_label
  _atom_site_symmetry_multiplicity
  _atom_site_fract_x
  _atom_site_fract_y
  _atom_site_fract_z
  _atom_site_occupancy
  Ti  Ti1       1.0  0.24999996706199118  0.25000000100403214  0.2500000871948427  1.0000
  Ti  Ti2       1.0  0.7500000100653543  0.750000064382946  0.7500000217107589  1.0000
  Cr  Cr1       1.0  1.8530981139985747e-08  0.999999980144726  1.2452520110767023e-08  1.0000
  Br  Br1       1.0  0.25140242376749644  0.2514023867431142  0.7485975695316848  1.0000
  Br  Br2       1.0  0.7485975977628537  0.7485975811725225  0.2514023993690605  1.0000
  Br  Br3       1.0  0.7485975985770444  0.2514024276009974  0.2514023960161206  1.0000
  Br  Br4       1.0  0.2514023996089248  0.7485975746101121  0.7485975747780619  1.0000
  Br  Br5       1.0  0.2514023885592877  0.7485975939018701  0.2514024023880773  1.0000
  Br  Br6       1.0  0.7485975946202309  0.2514023920640159  0.7485975368704486  1.0000
