data_image0
_chemical_formula_structural       Ti2CrTe6
_chemical_formula_sum              "Ti2 Cr1 Te6"
_cell_length_a       6.95505705312897
_cell_length_b       6.9550570609653075
_cell_length_c       6.955056936997851
_cell_angle_alpha    59.999999844168975
_cell_angle_beta     60.00000057241505
_cell_angle_gamma    59.9999995790256

_space_group_name_H-M_alt    "P 1"
_space_group_IT_number       1

loop_
  _space_group_symop_operation_xyz
  'x, y, z'

loop_
  _atom_site_type_symbol
  _atom_site_label
  _atom_site_symmetry_multiplicity
  _atom_site_fract_x
  _atom_site_fract_y
  _atom_site_fract_z
  _atom_site_occupancy
  Ti  Ti1       1.0  0.24999996048092388  0.24999994481360985  0.24999997862132214  1.0000
  Ti  Ti2       1.0  0.7500000118758521  0.7500000756898149  0.7500000188920467  1.0000
  Cr  Cr1       1.0  0.9999999791708312  4.754542168173802e-08  0.9999999291297632  1.0000
  Te  Te1       1.0  0.2597097577150947  0.25970970689540585  0.7402903170257601  1.0000
  Te  Te2       1.0  0.7402902704364231  0.7402902607797724  0.2597097264518521  1.0000
  Te  Te3       1.0  0.7402902801379814  0.25970971349773037  0.25970975947431935  1.0000
  Te  Te4       1.0  0.2597097014924936  0.7402903140494602  0.7402902528851613  1.0000
  Te  Te5       1.0  0.2597097230050949  0.740290274123547  0.25970973338046305  1.0000
  Te  Te6       1.0  0.74029032401323  0.25970966185468425  0.7402902848805588  1.0000
