data_image0
_chemical_formula_structural       Ti2CI6
_chemical_formula_sum              "Ti2 C1 I6"
_cell_length_a       7.37028677579903
_cell_length_b       7.370286772198139
_cell_length_c       7.370286771420315
_cell_angle_alpha    60.00000039039196
_cell_angle_beta     60.00000038200019
_cell_angle_gamma    60.00000008329478

_space_group_name_H-M_alt    "P 1"
_space_group_IT_number       1

loop_
  _space_group_symop_operation_xyz
  'x, y, z'

loop_
  _atom_site_type_symbol
  _atom_site_label
  _atom_site_symmetry_multiplicity
  _atom_site_fract_x
  _atom_site_fract_y
  _atom_site_fract_z
  _atom_site_occupancy
  Ti  Ti1       1.0  0.25000005383463275  0.24999999066794812  0.2499999580375758  1.0000
  Ti  Ti2       1.0  0.7500000684687521  0.7499998939023944  0.7500001319945373  1.0000
  C   C1        1.0  5.237695956296302e-09  2.6587727795104003e-08  0.9999999732328937  1.0000
  I   I1        1.0  0.2535292312537263  0.2535293036617507  0.7464707392123442  1.0000
  I   I2        1.0  0.7464706950033716  0.7464707836400166  0.2535292090836703  1.0000
  I   I3        1.0  0.7464707234544201  0.25352928370320416  0.25352923792444104  1.0000
  I   I4        1.0  0.25352923261883575  0.7464707188501806  0.7464707622600735  1.0000
  I   I5        1.0  0.25352926431035105  0.7464707123778828  0.25352926139140364  1.0000
  I   I6        1.0  0.7464707215301457  0.25352929017550196  0.7464707320502862  1.0000
