data_image0
_chemical_formula_structural       Ti2CCl6
_chemical_formula_sum              "Ti2 C1 Cl6"
_cell_length_a       6.481872640148795
_cell_length_b       6.4818728471711315
_cell_length_c       6.481872737241573
_cell_angle_alpha    59.9999989746412
_cell_angle_beta     59.99999863847016
_cell_angle_gamma    59.999999395299824

_space_group_name_H-M_alt    "P 1"
_space_group_IT_number       1

loop_
  _space_group_symop_operation_xyz
  'x, y, z'

loop_
  _atom_site_type_symbol
  _atom_site_label
  _atom_site_symmetry_multiplicity
  _atom_site_fract_x
  _atom_site_fract_y
  _atom_site_fract_z
  _atom_site_occupancy
  Ti  Ti1       1.0  0.24999998039043284  0.24999995664280927  0.2500000579179382  1.0000
  Ti  Ti2       1.0  0.750000003697229  0.7500001098939474  0.7500001413009152  1.0000
  C   C1        1.0  7.761114843571266e-08  0.9999998847409713  0.999999901573876  1.0000
  Cl  Cl1       1.0  0.2548149415431107  0.25481490847135213  0.745185046011363  1.0000
  Cl  Cl2       1.0  0.74518502370525  0.7451851183860707  0.2548148754567699  1.0000
  Cl  Cl3       1.0  0.7451850873150468  0.2548149231180559  0.2548149451717792  1.0000
  Cl  Cl4       1.0  0.25481487521640694  0.7451850905129196  0.7451850752911074  1.0000
  Cl  Cl5       1.0  0.254814932296873  0.7451851298481511  0.2548149120179242  1.0000
  Cl  Cl6       1.0  0.7451850598890684  0.25481488567231714  0.7451850525611079  1.0000
