data_image0
_chemical_formula_structural       Ti2CuBr6
_chemical_formula_sum              "Ti2 Cu1 Br6"
_cell_length_a       6.759787626340444
_cell_length_b       6.759787605809142
_cell_length_c       6.759787640596201
_cell_angle_alpha    59.999999904478535
_cell_angle_beta     59.999999881232156
_cell_angle_gamma    60.00000039742408

_space_group_name_H-M_alt    "P 1"
_space_group_IT_number       1

loop_
  _space_group_symop_operation_xyz
  'x, y, z'

loop_
  _atom_site_type_symbol
  _atom_site_label
  _atom_site_symmetry_multiplicity
  _atom_site_fract_x
  _atom_site_fract_y
  _atom_site_fract_z
  _atom_site_occupancy
  Ti  Ti1       1.0  0.24999999827469876  0.24999998243405314  0.2499999356832742  1.0000
  Ti  Ti2       1.0  0.7499999940306993  0.7499999291840628  0.750000090182806  1.0000
  Cu  Cu1       1.0  0.9999999991888252  1.2682667860832429e-08  8.857617595246247e-09  1.0000
  Br  Br1       1.0  0.2545074965649066  0.2545075390161752  0.7454924703360154  1.0000
  Br  Br2       1.0  0.745492511043094  0.7454924958050001  0.2545074907152431  1.0000
  Br  Br3       1.0  0.7454924771144725  0.25450752170053614  0.2545075280886099  1.0000
  Br  Br4       1.0  0.2545075048884478  0.7454924823198741  0.7454924922316357  1.0000
  Br  Br5       1.0  0.2545075413612876  0.7454925017430143  0.25450750048568915  1.0000
  Br  Br6       1.0  0.7454924873489364  0.25450753126635123  0.7454924760690815  1.0000
