data_image0
_chemical_formula_structural       Ti2CrCl6
_chemical_formula_sum              "Ti2 Cr1 Cl6"
_cell_length_a       6.497808017929317
_cell_length_b       6.497808040286723
_cell_length_c       6.497808197463837
_cell_angle_alpha    59.99999905855539
_cell_angle_beta     59.999998802269204
_cell_angle_gamma    59.9999995701298

_space_group_name_H-M_alt    "P 1"
_space_group_IT_number       1

loop_
  _space_group_symop_operation_xyz
  'x, y, z'

loop_
  _atom_site_type_symbol
  _atom_site_label
  _atom_site_symmetry_multiplicity
  _atom_site_fract_x
  _atom_site_fract_y
  _atom_site_fract_z
  _atom_site_occupancy
  Ti  Ti1       1.0  0.25000013885313677  0.2499999849051643  0.24999993443504423  1.0000
  Ti  Ti2       1.0  0.749999908750962  0.7499999320971897  0.7500001131489434  1.0000
  Cr  Cr1       1.0  0.9999999866273868  0.9999999868059904  0.9999999501851117  1.0000
  Cl  Cl1       1.0  0.2505192724948651  0.2505192575078492  0.7494807222724423  1.0000
  Cl  Cl2       1.0  0.7494807237345549  0.7494807443131379  0.250519259342193  1.0000
  Cl  Cl3       1.0  0.7494806177649896  0.2505193529211285  0.25051930048667226  1.0000
  Cl  Cl4       1.0  0.2505193019767992  0.7494807770702375  0.7494806752933354  1.0000
  Cl  Cl5       1.0  0.25051929396504574  0.7494806774368388  0.25051929758805475  1.0000
  Cl  Cl6       1.0  0.7494807468172073  0.2505192866869781  0.7494807513918512  1.0000
