data_image0
_chemical_formula_structural       Ti2CuF6
_chemical_formula_sum              "Ti2 Cu1 F6"
_cell_length_a       5.236972650947599
_cell_length_b       5.2369725067042365
_cell_length_c       5.236972859168819
_cell_angle_alpha    60.00000104949126
_cell_angle_beta     60.000000883649165
_cell_angle_gamma    60.00000029195061

_space_group_name_H-M_alt    "P 1"
_space_group_IT_number       1

loop_
  _space_group_symop_operation_xyz
  'x, y, z'

loop_
  _atom_site_type_symbol
  _atom_site_label
  _atom_site_symmetry_multiplicity
  _atom_site_fract_x
  _atom_site_fract_y
  _atom_site_fract_z
  _atom_site_occupancy
  Ti  Ti1       1.0  0.24999995944150347  0.24999993167851908  0.25000009350570496  1.0000
  Ti  Ti2       1.0  0.7500000134194235  0.750000110753378  0.7499999309932541  1.0000
  Cu  Cu1       1.0  0.9999999972830481  0.9999999883067465  0.9999999823816015  1.0000
  F   F1        1.0  0.2592095028517118  0.25920955195624795  0.7407904147376413  1.0000
  F   F2        1.0  0.7407905495423409  0.740790443702635  0.2592094769017584  1.0000
  F   F3        1.0  0.7407904711713555  0.2592094588970731  0.2592095716576502  1.0000
  F   F4        1.0  0.25920954351778214  0.7407904712795985  0.7407905147878151  1.0000
  F   F5        1.0  0.2592094908583257  0.7407905509431385  0.25920958654330595  1.0000
  F   F6        1.0  0.7407904728046971  0.25920947277955475  0.740790469094707  1.0000
