data_image0
_chemical_formula_structural       Ti2CoSe6
_chemical_formula_sum              "Ti2 Co1 Se6"
_cell_length_a       6.284038921829634
_cell_length_b       6.2840389433030905
_cell_length_c       6.284038825890774
_cell_angle_alpha    59.99999986904716
_cell_angle_beta     59.99999948596351
_cell_angle_gamma    60.00000056430365

_space_group_name_H-M_alt    "P 1"
_space_group_IT_number       1

loop_
  _space_group_symop_operation_xyz
  'x, y, z'

loop_
  _atom_site_type_symbol
  _atom_site_label
  _atom_site_symmetry_multiplicity
  _atom_site_fract_x
  _atom_site_fract_y
  _atom_site_fract_z
  _atom_site_occupancy
  Ti  Ti1       1.0  0.24999997924069742  0.24999999553747967  0.24999979874562897  1.0000
  Ti  Ti2       1.0  0.7500002554304946  0.7499997390923321  0.7500001090693709  1.0000
  Co  Co1       1.0  0.999999972325836  5.846931468152437e-09  1.3656168733018188e-09  1.0000
  Se  Se1       1.0  0.2588600943034985  0.2588603009460293  0.7411397963875088  1.0000
  Se  Se2       1.0  0.7411397418054178  0.741139874152629  0.25886010957020533  1.0000
  Se  Se3       1.0  0.7411398635799094  0.25886019847379055  0.258860244513654  1.0000
  Se  Se4       1.0  0.25886020136799065  0.7411397641863527  0.7411398203338175  1.0000
  Se  Se5       1.0  0.25886015428962844  0.7411398541282449  0.2588602468545048  1.0000
  Se  Se6       1.0  0.7411397219484358  0.25886027224598257  0.7411398814135076  1.0000
