data_image0
_chemical_formula_structural       Ti2CF6
_chemical_formula_sum              "Ti2 C1 F6"
_cell_length_a       4.424012037582182
_cell_length_b       4.4240124009215
_cell_length_c       4.424012062709619
_cell_angle_alpha    60.00000792302833
_cell_angle_beta     59.99999906676991
_cell_angle_gamma    60.00000895410128

_space_group_name_H-M_alt    "P 1"
_space_group_IT_number       1

loop_
  _space_group_symop_operation_xyz
  'x, y, z'

loop_
  _atom_site_type_symbol
  _atom_site_label
  _atom_site_symmetry_multiplicity
  _atom_site_fract_x
  _atom_site_fract_y
  _atom_site_fract_z
  _atom_site_occupancy
  Ti  Ti1       1.0  0.24999995779522316  0.2500000747791391  0.24999996958592083  1.0000
  Ti  Ti2       1.0  0.750000060392935  0.7499999530339723  0.7499999328227067  1.0000
  C   C1        1.0  1.1073610415070791e-08  0.9999999667791661  0.9999999568242103  1.0000
  F   F1        1.0  0.2431355993359451  0.24313583014860599  0.7568644152484927  1.0000
  F   F2        1.0  0.756864258606162  0.7568643886842922  0.24313572719753396  1.0000
  F   F3        1.0  0.7568640248030127  0.24313537623374967  0.24313615182250142  1.0000
  F   F4        1.0  0.24313544224781763  0.7568640342255742  0.7568644772363367  1.0000
  F   F5        1.0  0.24313618149359623  0.7568644276987012  0.24313525512635187  1.0000
  F   F6        1.0  0.7568645451783608  0.2431359959960058  0.7568640589333239  1.0000
