data_image0
_chemical_formula_structural       Ti2CuI6
_chemical_formula_sum              "Ti2 Cu1 I6"
_cell_length_a       7.3550566950495275
_cell_length_b       7.355056631722035
_cell_length_c       7.355056649731767
_cell_angle_alpha    60.00000008607206
_cell_angle_beta     60.00000004805916
_cell_angle_gamma    60.00000002695915

_space_group_name_H-M_alt    "P 1"
_space_group_IT_number       1

loop_
  _space_group_symop_operation_xyz
  'x, y, z'

loop_
  _atom_site_type_symbol
  _atom_site_label
  _atom_site_symmetry_multiplicity
  _atom_site_fract_x
  _atom_site_fract_y
  _atom_site_fract_z
  _atom_site_occupancy
  Ti  Ti1       1.0  0.25000003074785115  0.2500000134805732  0.249999959570675  1.0000
  Ti  Ti2       1.0  0.7499999431780479  0.7500000637541546  0.7499999497462135  1.0000
  Cu  Cu1       1.0  2.7589504502120846e-09  1.9982087441298486e-08  0.9999999995063518  1.0000
  I   I1        1.0  0.25398324850474063  0.25398323737092154  0.7460167775144829  1.0000
  I   I2        1.0  0.746016722918031  0.746016696658847  0.2539833202231999  1.0000
  I   I3        1.0  0.7460167730158169  0.25398320744702363  0.25398329636935596  1.0000
  I   I4        1.0  0.2539832891778366  0.7460167415693103  0.7460167172185997  1.0000
  I   I5        1.0  0.25398325229775043  0.7460167603299018  0.25398326245288794  1.0000
  I   I6        1.0  0.7460167410551776  0.2539832586237379  0.7460167179561659  1.0000
