data_image0
_chemical_formula_structural       Ti2FeF6
_chemical_formula_sum              "Ti2 Fe1 F6"
_cell_length_a       5.280380143440104
_cell_length_b       5.280380141356632
_cell_length_c       5.280379964574112
_cell_angle_alpha    60.000000525068636
_cell_angle_beta     60.00000021359315
_cell_angle_gamma    59.999999769124166

_space_group_name_H-M_alt    "P 1"
_space_group_IT_number       1

loop_
  _space_group_symop_operation_xyz
  'x, y, z'

loop_
  _atom_site_type_symbol
  _atom_site_label
  _atom_site_symmetry_multiplicity
  _atom_site_fract_x
  _atom_site_fract_y
  _atom_site_fract_z
  _atom_site_occupancy
  Ti  Ti1       1.0  0.2500004713692877  0.24999991185540685  0.24999956462758813  1.0000
  Ti  Ti2       1.0  0.7499999778320795  0.7500000950771888  0.7499999216095127  1.0000
  Fe  Fe1       1.0  2.610865449130298e-08  6.958276502848296e-09  0.9999999910417467  1.0000
  F   F1        1.0  0.2597162412006558  0.25971622974232933  0.7402839198184148  1.0000
  F   F2        1.0  0.7402836296308017  0.7402838328564817  0.25971623493820556  1.0000
  F   F3        1.0  0.7402835144287678  0.2597162369366001  0.25971631597102157  1.0000
  F   F4        1.0  0.2597163224111142  0.7402836586635712  0.7402838010330802  1.0000
  F   F5        1.0  0.25971618521123485  0.7402838341464192  0.2597163649586238  1.0000
  F   F6        1.0  0.7402836009764735  0.25971623309124325  0.7402838885083423  1.0000
