data_image0
_chemical_formula_structural       Ti2FeI6
_chemical_formula_sum              "Ti2 Fe1 I6"
_cell_length_a       7.310458988771922
_cell_length_b       7.310458957164376
_cell_length_c       7.3104589121907315
_cell_angle_alpha    60.00000082580933
_cell_angle_beta     60.00000058145922
_cell_angle_gamma    59.99999973012988

_space_group_name_H-M_alt    "P 1"
_space_group_IT_number       1

loop_
  _space_group_symop_operation_xyz
  'x, y, z'

loop_
  _atom_site_type_symbol
  _atom_site_label
  _atom_site_symmetry_multiplicity
  _atom_site_fract_x
  _atom_site_fract_y
  _atom_site_fract_z
  _atom_site_occupancy
  Ti  Ti1       1.0  0.2499999087267877  0.2500000138154156  0.2500000791839419  1.0000
  Ti  Ti2       1.0  0.7499999689471453  0.7500000665762294  0.7499999052574827  1.0000
  Fe  Fe1       1.0  2.0166924418487745e-08  0.9999999916233381  2.967035142753298e-08  1.0000
  I   I1        1.0  0.24110521080782682  0.24110510771984228  0.7588948214799595  1.0000
  I   I2        1.0  0.7588948329729357  0.758894848697205  0.24110517746083154  1.0000
  I   I3        1.0  0.758894877712946  0.24110510699244947  0.24110513431795982  1.0000
  I   I4        1.0  0.24110514969774793  0.7588948795805807  0.758894826268101  1.0000
  I   I5        1.0  0.24110514685638873  0.7588948512574651  0.24110516606298588  1.0000
  I   I6        1.0  0.7588948806501189  0.2411051302895682  0.7588948571759065  1.0000
