data_image0
_chemical_formula_structural       Ti2FeO6
_chemical_formula_sum              "Ti2 Fe1 O6"
_cell_length_a       4.735298908387386
_cell_length_b       4.735299410613915
_cell_length_c       4.735298591917572
_cell_angle_alpha    60.00000091854509
_cell_angle_beta     59.99999984365259
_cell_angle_gamma    60.000001946600335

_space_group_name_H-M_alt    "P 1"
_space_group_IT_number       1

loop_
  _space_group_symop_operation_xyz
  'x, y, z'

loop_
  _atom_site_type_symbol
  _atom_site_label
  _atom_site_symmetry_multiplicity
  _atom_site_fract_x
  _atom_site_fract_y
  _atom_site_fract_z
  _atom_site_occupancy
  Ti  Ti1       1.0  0.24999961339231921  0.2500010947380787  0.2500000049221656  1.0000
  Ti  Ti2       1.0  0.7499998698665902  0.7499986881552203  0.7500002626732841  1.0000
  Fe  Fe1       1.0  0.9999999853690267  4.240972978684284e-16  0.9999999988682897  1.0000
  O   O1        1.0  0.2575045259451144  0.25750496737743617  0.7424954142638746  1.0000
  O   O2        1.0  0.7424954826678432  0.7424951853731728  0.2575044859742446  1.0000
  O   O3        1.0  0.7424949989880337  0.2575047029213113  0.25750474421148867  1.0000
  O   O4        1.0  0.25750506707131454  0.7424950799719737  0.7424955086294396  1.0000
  O   O5        1.0  0.25750471329369085  0.7424952908361323  0.25750479536144283  1.0000
  O   O6        1.0  0.7424956090440897  0.25750507658690003  0.7424949188146119  1.0000
