data_image0
_chemical_formula_structural       Ti2FeCl6
_chemical_formula_sum              "Ti2 Fe1 Cl6"
_cell_length_a       6.4524319253264215
_cell_length_b       6.452431783375425
_cell_length_c       6.452431792150263
_cell_angle_alpha    59.99999977859302
_cell_angle_beta     59.99999818644587
_cell_angle_gamma    60.000000329420594

_space_group_name_H-M_alt    "P 1"
_space_group_IT_number       1

loop_
  _space_group_symop_operation_xyz
  'x, y, z'

loop_
  _atom_site_type_symbol
  _atom_site_label
  _atom_site_symmetry_multiplicity
  _atom_site_fract_x
  _atom_site_fract_y
  _atom_site_fract_z
  _atom_site_occupancy
  Ti  Ti1       1.0  0.2500000182685878  0.24999989409697504  0.24999989369419984  1.0000
  Ti  Ti2       1.0  0.7500003667471644  0.7499998094645459  0.7499999884582003  1.0000
  Fe  Fe1       1.0  0.9999999568334818  1.1388681293355476e-08  2.5187739017221136e-08  1.0000
  Cl  Cl1       1.0  0.24814257014797647  0.24814268851124616  0.7518574195679867  1.0000
  Cl  Cl2       1.0  0.7518573870669327  0.7518573643031774  0.24814256540032575  1.0000
  Cl  Cl3       1.0  0.7518574242719851  0.24814269485427973  0.2481425557859958  1.0000
  Cl  Cl4       1.0  0.24814246859011765  0.7518574168016654  0.751857408690911  1.0000
  Cl  Cl5       1.0  0.24814250503182766  0.7518574206500245  0.2481427667262342  1.0000
  Cl  Cl6       1.0  0.7518573168806281  0.24814268910780732  0.7518573922544892  1.0000
