data_image0
_chemical_formula_structural       Ti2FeTe6
_chemical_formula_sum              "Ti2 Fe1 Te6"
_cell_length_a       6.830931112472703
_cell_length_b       6.830931035855679
_cell_length_c       6.830930996264157
_cell_angle_alpha    60.00000035251841
_cell_angle_beta     59.99999973631382
_cell_angle_gamma    60.00000013015034

_space_group_name_H-M_alt    "P 1"
_space_group_IT_number       1

loop_
  _space_group_symop_operation_xyz
  'x, y, z'

loop_
  _atom_site_type_symbol
  _atom_site_label
  _atom_site_symmetry_multiplicity
  _atom_site_fract_x
  _atom_site_fract_y
  _atom_site_fract_z
  _atom_site_occupancy
  Ti  Ti1       1.0  0.24999999979600065  0.24999998795351752  0.24999997293458262  1.0000
  Ti  Ti2       1.0  0.7499998987315455  0.75000001226993  0.750000113279157  1.0000
  Fe  Fe1       1.0  2.160022493759186e-08  0.9999999605553229  4.552045829593743e-08  1.0000
  Te  Te1       1.0  0.249963033698903  0.2499629823542255  0.7500370029742928  1.0000
  Te  Te2       1.0  0.750036961386519  0.7500370071115826  0.24996297885429788  1.0000
  Te  Te3       1.0  0.7500370442874041  0.2499630198087815  0.24996298805508285  1.0000
  Te  Te4       1.0  0.2499630139404611  0.7500369678640871  0.7500370216559274  1.0000
  Te  Te5       1.0  0.2499630574833557  0.7500370120073165  0.2499629188202918  1.0000
  Te  Te6       1.0  0.7500369723650926  0.2499630455902067  0.7500369588594734  1.0000
