data_image0
_chemical_formula_structural       Ti2GeBr6
_chemical_formula_sum              "Ti2 Ge1 Br6"
_cell_length_a       6.8845429391769075
_cell_length_b       6.884543088741459
_cell_length_c       6.884543207243919
_cell_angle_alpha    59.99999999323406
_cell_angle_beta     59.99999959340053
_cell_angle_gamma    59.99999912853966

_space_group_name_H-M_alt    "P 1"
_space_group_IT_number       1

loop_
  _space_group_symop_operation_xyz
  'x, y, z'

loop_
  _atom_site_type_symbol
  _atom_site_label
  _atom_site_symmetry_multiplicity
  _atom_site_fract_x
  _atom_site_fract_y
  _atom_site_fract_z
  _atom_site_occupancy
  Ti  Ti1       1.0  0.25000007395961016  0.25000003353711586  0.24999993683369895  1.0000
  Ti  Ti2       1.0  0.7500000013324806  0.7499999974306432  0.7500000464436112  1.0000
  Ge  Ge1       1.0  0.9999999783994106  0.999999989326134  1.5940639314692897e-10  1.0000
  Br  Br1       1.0  0.2551634214845948  0.25516347867157707  0.7448365676322817  1.0000
  Br  Br2       1.0  0.7448365753000692  0.7448365060427623  0.2551634664052175  1.0000
  Br  Br3       1.0  0.744836529996277  0.25516347326725775  0.2551634224511072  1.0000
  Br  Br4       1.0  0.2551634570127368  0.7448365256789033  0.7448365468995507  1.0000
  Br  Br5       1.0  0.25516345936109786  0.7448365508713612  0.25516344828992527  1.0000
  Br  Br6       1.0  0.7448365064368366  0.2551634462958226  0.7448365645114031  1.0000
