data_image0
_chemical_formula_structural       Ti2GeSe6
_chemical_formula_sum              "Ti2 Ge1 Se6"
_cell_length_a       6.475867604581421
_cell_length_b       6.475867604675129
_cell_length_c       6.475867610696674
_cell_angle_alpha    59.999999177873974
_cell_angle_beta     60.000000346740684
_cell_angle_gamma    60.00000078815734

_space_group_name_H-M_alt    "P 1"
_space_group_IT_number       1

loop_
  _space_group_symop_operation_xyz
  'x, y, z'

loop_
  _atom_site_type_symbol
  _atom_site_label
  _atom_site_symmetry_multiplicity
  _atom_site_fract_x
  _atom_site_fract_y
  _atom_site_fract_z
  _atom_site_occupancy
  Ti  Ti1       1.0  0.25000019360713743  0.25000002786979975  0.2499998181658402  1.0000
  Ti  Ti2       1.0  0.7499999769497945  0.7500001460204553  0.7500000634064236  1.0000
  Ge  Ge1       1.0  1.1437070982819194e-08  0.9999999924350222  0.9999999965197588  1.0000
  Se  Se1       1.0  0.2631608765689765  0.26316098505382857  0.7368390821566055  1.0000
  Se  Se2       1.0  0.7368391014182426  0.7368390016032222  0.26316093218191605  1.0000
  Se  Se3       1.0  0.7368389451533897  0.26316090286497207  0.2631609944251241  1.0000
  Se  Se4       1.0  0.2631609335591419  0.7368389911210991  0.7368390711045871  1.0000
  Se  Se5       1.0  0.26316103275610825  0.736839067914367  0.26316086700141034  1.0000
  Se  Se6       1.0  0.7368389192420095  0.26316087902654955  0.7368391863665075  1.0000
