data_image0
_chemical_formula_structural       Ti2GeTe6
_chemical_formula_sum              "Ti2 Ge1 Te6"
_cell_length_a       7.077669535190468
_cell_length_b       7.077669506510119
_cell_length_c       7.077669635690757
_cell_angle_alpha    59.99999992262056
_cell_angle_beta     59.99999962798045
_cell_angle_gamma    59.99999931894127

_space_group_name_H-M_alt    "P 1"
_space_group_IT_number       1

loop_
  _space_group_symop_operation_xyz
  'x, y, z'

loop_
  _atom_site_type_symbol
  _atom_site_label
  _atom_site_symmetry_multiplicity
  _atom_site_fract_x
  _atom_site_fract_y
  _atom_site_fract_z
  _atom_site_occupancy
  Ti  Ti1       1.0  0.2499999674048541  0.2500000767693794  0.25000000482854406  1.0000
  Ti  Ti2       1.0  0.7500001136667581  0.750000007081991  0.7500000458047071  1.0000
  Ge  Ge1       1.0  3.3619052395719385e-09  0.9999999948086944  2.775969431528584e-08  1.0000
  Te  Te1       1.0  0.26627868919269926  0.26627869737396725  0.7337213015169599  1.0000
  Te  Te2       1.0  0.7337213428048026  0.7337212791904174  0.2662786224271465  1.0000
  Te  Te3       1.0  0.7337212546869046  0.2662787193018832  0.2662786867067229  1.0000
  Te  Te4       1.0  0.26627864418885505  0.7337212797581604  0.7337213165696304  1.0000
  Te  Te5       1.0  0.2662786828994716  0.7337212650283373  0.26627871961926  1.0000
  Te  Te6       1.0  0.7337213018023805  0.26627868211864847  0.7337212723521535  1.0000
