data_image0
_chemical_formula_structural       Ti2GeCl6
_chemical_formula_sum              "Ti2 Ge1 Cl6"
_cell_length_a       6.598974240114855
_cell_length_b       6.598974479354367
_cell_length_c       6.5989741768836625
_cell_angle_alpha    60.000001926175116
_cell_angle_beta     60.00000043962368
_cell_angle_gamma    60.00000046035949

_space_group_name_H-M_alt    "P 1"
_space_group_IT_number       1

loop_
  _space_group_symop_operation_xyz
  'x, y, z'

loop_
  _atom_site_type_symbol
  _atom_site_label
  _atom_site_symmetry_multiplicity
  _atom_site_fract_x
  _atom_site_fract_y
  _atom_site_fract_z
  _atom_site_occupancy
  Ti  Ti1       1.0  0.24999995485273235  0.24999999434414025  0.25000009332097173  1.0000
  Ti  Ti2       1.0  0.7499998993058506  0.7500000572709153  0.7500001330312315  1.0000
  Ge  Ge1       1.0  5.513253521350673e-09  7.795042024277778e-08  0.9999999340219706  1.0000
  Cl  Cl1       1.0  0.25295164786118474  0.2529515705060984  0.7470483665451597  1.0000
  Cl  Cl2       1.0  0.7470483395687167  0.7470483437677377  0.2529516102877436  1.0000
  Cl  Cl3       1.0  0.7470484357689375  0.25295162042240377  0.2529515408234078  1.0000
  Cl  Cl4       1.0  0.25295157362916876  0.7470483959293637  0.7470484315711357  1.0000
  Cl  Cl5       1.0  0.2529516783963986  0.7470483790145548  0.25295151552475365  1.0000
  Cl  Cl6       1.0  0.7470484565125326  0.2529515705225647  0.7470483790293159  1.0000
