data_image0
_chemical_formula_structural       Ti2GeI6
_chemical_formula_sum              "Ti2 Ge1 I6"
_cell_length_a       7.576349818432239
_cell_length_b       7.576349607211448
_cell_length_c       7.576349795599255
_cell_angle_alpha    59.999999807589035
_cell_angle_beta     59.99999983922623
_cell_angle_gamma    59.999998844468

_space_group_name_H-M_alt    "P 1"
_space_group_IT_number       1

loop_
  _space_group_symop_operation_xyz
  'x, y, z'

loop_
  _atom_site_type_symbol
  _atom_site_label
  _atom_site_symmetry_multiplicity
  _atom_site_fract_x
  _atom_site_fract_y
  _atom_site_fract_z
  _atom_site_occupancy
  Ti  Ti1       1.0  0.250000024724816  0.25000013245243563  0.2499999765159934  1.0000
  Ti  Ti2       1.0  0.7500000007332971  0.7499999592758032  0.7500001047955994  1.0000
  Ge  Ge1       1.0  0.9999999658388206  6.466147638035419e-09  0.9999999848097859  1.0000
  I   I1        1.0  0.25960103548116514  0.25960097064696763  0.7403989876828564  1.0000
  I   I2        1.0  0.7403989838516056  0.7403990160063707  0.2596009895213421  1.0000
  I   I3        1.0  0.740398968222412  0.25960105610472095  0.2596009610738307  1.0000
  I   I4        1.0  0.259600970317961  0.7403989580297449  0.7403990084686858  1.0000
  I   I5        1.0  0.2596010500270953  0.7403988781448297  0.2596009873094747  1.0000
  I   I6        1.0  0.7403990071014594  0.25960101798244084  0.7403990017410002  1.0000
