data_image0
_chemical_formula_structural       Ti2GeF6
_chemical_formula_sum              "Ti2 Ge1 F6"
_cell_length_a       5.526269045323431
_cell_length_b       5.526268706317217
_cell_length_c       5.526268444411593
_cell_angle_alpha    60.00000026097116
_cell_angle_beta     59.99999913229464
_cell_angle_gamma    60.00000276163568

_space_group_name_H-M_alt    "P 1"
_space_group_IT_number       1

loop_
  _space_group_symop_operation_xyz
  'x, y, z'

loop_
  _atom_site_type_symbol
  _atom_site_label
  _atom_site_symmetry_multiplicity
  _atom_site_fract_x
  _atom_site_fract_y
  _atom_site_fract_z
  _atom_site_occupancy
  Ti  Ti1       1.0  0.24999999896173986  0.24999957781727583  0.2499998510657753  1.0000
  Ti  Ti2       1.0  0.749999750363072  0.7499990969125324  0.7500004881651345  1.0000
  Ge  Ge1       1.0  7.224068039678268e-08  2.6594686723582825e-07  8.243218551715901e-08  1.0000
  F   F1        1.0  0.24157165284880674  0.24157231189129177  0.7584277746737585  1.0000
  F   F2        1.0  0.7584286600324246  0.7584282577099442  0.2415714819158741  1.0000
  F   F3        1.0  0.7584280272827914  0.24157224491945908  0.241571842643006  1.0000
  F   F4        1.0  0.24157125119917225  0.7584285130607622  0.75842847029556  1.0000
  F   F5        1.0  0.2415720039578673  0.7584280044822918  0.24157181676269457  1.0000
  F   F6        1.0  0.758428534579885  0.24157172517011063  0.7584281975483838  1.0000
