data_image0
_chemical_formula_structural       Ti2GeO6
_chemical_formula_sum              "Ti2 Ge1 O6"
_cell_length_a       4.908063034029158
_cell_length_b       4.908062911398895
_cell_length_c       4.908063097435489
_cell_angle_alpha    59.99999873675776
_cell_angle_beta     59.999998681812045
_cell_angle_gamma    59.999998638186234

_space_group_name_H-M_alt    "P 1"
_space_group_IT_number       1

loop_
  _space_group_symop_operation_xyz
  'x, y, z'

loop_
  _atom_site_type_symbol
  _atom_site_label
  _atom_site_symmetry_multiplicity
  _atom_site_fract_x
  _atom_site_fract_y
  _atom_site_fract_z
  _atom_site_occupancy
  Ti  Ti1       1.0  0.25000022418207474  0.25000000625699054  0.24999989149073035  1.0000
  Ti  Ti2       1.0  0.7500001998286845  0.7499999688635066  0.7499997524129709  1.0000
  Ge  Ge1       1.0  0.9999999965546085  0.9999999750462676  5.08739071158468e-08  1.0000
  O   O1        1.0  0.2602681796498121  0.2602683540233671  0.739731860275425  1.0000
  O   O2        1.0  0.7397316784380321  0.7397316884722096  0.2602683324093498  1.0000
  O   O3        1.0  0.7397316114639719  0.2602682504030345  0.2602683605266914  1.0000
  O   O4        1.0  0.2602683105983295  0.739731727212837  0.7397316696136175  1.0000
  O   O5        1.0  0.2602682156860484  0.7397316507886231  0.26026841235345277  1.0000
  O   O6        1.0  0.7397315466317982  0.2602683966977  0.7397317727468942  1.0000
