data_image0
_chemical_formula_structural       Ti2HfO6
_chemical_formula_sum              "Ti2 Hf1 O6"
_cell_length_a       5.122320310703497
_cell_length_b       5.1223200705479535
_cell_length_c       5.122320297951093
_cell_angle_alpha    59.99999977782817
_cell_angle_beta     59.99999990774084
_cell_angle_gamma    59.99999947907943

_space_group_name_H-M_alt    "P 1"
_space_group_IT_number       1

loop_
  _space_group_symop_operation_xyz
  'x, y, z'

loop_
  _atom_site_type_symbol
  _atom_site_label
  _atom_site_symmetry_multiplicity
  _atom_site_fract_x
  _atom_site_fract_y
  _atom_site_fract_z
  _atom_site_occupancy
  Ti  Ti1       1.0  0.24999985728564686  0.24999989158556024  0.2500001668341821  1.0000
  Ti  Ti2       1.0  0.7499999482152709  0.7500003107617166  0.7499996155862547  1.0000
  Hf  Hf1       1.0  0.9999999716049928  3.1082952775086206e-08  0.999999986942586  1.0000
  O   O1        1.0  0.26873777683148575  0.2687377647746558  0.7312622337259229  1.0000
  O   O2        1.0  0.731262300391035  0.7312621769540201  0.26873784574025306  1.0000
  O   O3        1.0  0.7312622360340956  0.26873769401327036  0.26873788598470083  1.0000
  O   O4        1.0  0.2687378832456927  0.7312622094594647  0.7312622774793835  1.0000
  O   O5        1.0  0.26873769802941516  0.7312622265290665  0.26873785855597065  1.0000
  O   O6        1.0  0.7312623258880353  0.2687377128086117  0.7312621726208683  1.0000
