data_image0
_chemical_formula_structural       Ti2HfTe6
_chemical_formula_sum              "Ti2 Hf1 Te6"
_cell_length_a       7.212176368600792
_cell_length_b       7.212176473910347
_cell_length_c       7.212176533960816
_cell_angle_alpha    59.99999987916237
_cell_angle_beta     59.99999953186846
_cell_angle_gamma    60.00000098321711

_space_group_name_H-M_alt    "P 1"
_space_group_IT_number       1

loop_
  _space_group_symop_operation_xyz
  'x, y, z'

loop_
  _atom_site_type_symbol
  _atom_site_label
  _atom_site_symmetry_multiplicity
  _atom_site_fract_x
  _atom_site_fract_y
  _atom_site_fract_z
  _atom_site_occupancy
  Ti  Ti1       1.0  0.25000005139905934  0.25000000376741077  0.24999995287788662  1.0000
  Ti  Ti2       1.0  0.7499999876886931  0.7500000113022309  0.7500000042823822  1.0000
  Hf  Hf1       1.0  0.9999999940814248  0.9999999745275603  2.4014771297853233e-08  1.0000
  Te  Te1       1.0  0.26780403326833996  0.26780394727947454  0.7321960045311982  1.0000
  Te  Te2       1.0  0.7321959243437897  0.7321960864699553  0.2678040034386038  1.0000
  Te  Te3       1.0  0.7321959842105831  0.26780400610199206  0.26780403706167283  1.0000
  Te  Te4       1.0  0.26780401363852613  0.7321959885896975  0.7321959883435811  1.0000
  Te  Te5       1.0  0.2678040368826887  0.7321959628128654  0.2678040152553131  1.0000
  Te  Te6       1.0  0.7321959727397765  0.2678040301806615  0.7321959676756564  1.0000
