data_image0
_chemical_formula_structural       Ti2HfS6
_chemical_formula_sum              "Ti2 Hf1 S6"
_cell_length_a       6.243658689615386
_cell_length_b       6.243658751402153
_cell_length_c       6.243658653513227
_cell_angle_alpha    60.000001149563346
_cell_angle_beta     60.00000160104226
_cell_angle_gamma    60.00000089677282

_space_group_name_H-M_alt    "P 1"
_space_group_IT_number       1

loop_
  _space_group_symop_operation_xyz
  'x, y, z'

loop_
  _atom_site_type_symbol
  _atom_site_label
  _atom_site_symmetry_multiplicity
  _atom_site_fract_x
  _atom_site_fract_y
  _atom_site_fract_z
  _atom_site_occupancy
  Ti  Ti1       1.0  0.2500000251665957  0.25000004947940774  0.2499999926781196  1.0000
  Ti  Ti2       1.0  0.750000033303505  0.7499999365873681  0.749999968919798  1.0000
  Hf  Hf1       1.0  0.9999997560846834  2.1577402012584204e-08  3.860077563771858e-09  1.0000
  S   S1        1.0  0.2712679751857919  0.27126805390828324  0.7287320018869349  1.0000
  S   S2        1.0  0.7287321285447717  0.7287321126240358  0.27126791731948263  1.0000
  S   S3        1.0  0.7287319878903951  0.27126796073362003  0.2712679414705263  1.0000
  S   S4        1.0  0.2712679280254365  0.7287320979116896  0.7287320198795071  1.0000
  S   S5        1.0  0.2712680275413973  0.7287319185727303  0.27126804413844924  1.0000
  S   S6        1.0  0.7287321348348076  0.2712678556431904  0.7287320979602215  1.0000
