data_image0
_chemical_formula_structural       Ti2HfSe6
_chemical_formula_sum              "Ti2 Hf1 Se6"
_cell_length_a       6.5595814123016
_cell_length_b       6.559581421733223
_cell_length_c       6.559581530364107
_cell_angle_alpha    59.99999947324864
_cell_angle_beta     59.999999006675544
_cell_angle_gamma    60.000000457678226

_space_group_name_H-M_alt    "P 1"
_space_group_IT_number       1

loop_
  _space_group_symop_operation_xyz
  'x, y, z'

loop_
  _atom_site_type_symbol
  _atom_site_label
  _atom_site_symmetry_multiplicity
  _atom_site_fract_x
  _atom_site_fract_y
  _atom_site_fract_z
  _atom_site_occupancy
  Ti  Ti1       1.0  0.2500000304871318  0.2500000314956271  0.24999997208003844  1.0000
  Ti  Ti2       1.0  0.7500000427093009  0.7499998816365376  0.7500000531392844  1.0000
  Hf  Hf1       1.0  3.003233324376267e-08  0.9999999943986755  1.522527039079754e-08  1.0000
  Se  Se1       1.0  0.2718525844082137  0.2718526285801234  0.7281474170678365  1.0000
  Se  Se2       1.0  0.7281474082738232  0.7281473835087791  0.2718525394753035  1.0000
  Se  Se3       1.0  0.7281473429803502  0.2718526121074848  0.27185261586967907  1.0000
  Se  Se4       1.0  0.271852643087507  0.7281473775761185  0.7281473963443627  1.0000
  Se  Se5       1.0  0.27185257519631006  0.7281473543756923  0.27185271696831514  1.0000
  Se  Se6       1.0  0.7281473557308743  0.2718527267962156  0.728147261827036  1.0000
