data_image0
_chemical_formula_structural       Ti2IrS6
_chemical_formula_sum              "Ti2 Ir1 S6"
_cell_length_a       6.0653014832344025
_cell_length_b       6.06530179635148
_cell_length_c       6.065301971716861
_cell_angle_alpha    59.999997167461444
_cell_angle_beta     59.99999787769453
_cell_angle_gamma    59.99999901944717

_space_group_name_H-M_alt    "P 1"
_space_group_IT_number       1

loop_
  _space_group_symop_operation_xyz
  'x, y, z'

loop_
  _atom_site_type_symbol
  _atom_site_label
  _atom_site_symmetry_multiplicity
  _atom_site_fract_x
  _atom_site_fract_y
  _atom_site_fract_z
  _atom_site_occupancy
  Ti  Ti1       1.0  0.25000015973321493  0.24999991425527712  0.25000004030634254  1.0000
  Ti  Ti2       1.0  0.750000060054206  0.7500000920986111  0.7499997502396089  1.0000
  Ir  Ir1       1.0  0.9999999661938774  0.9999999757688237  9.496755073811031e-08  1.0000
  S   S1        1.0  0.26908306868229553  0.2690830714031815  0.7309168807966158  1.0000
  S   S2        1.0  0.7309168448075426  0.7309169571626137  0.26908319852847684  1.0000
  S   S3        1.0  0.7309168763525077  0.2690831329892401  0.2690830478738281  1.0000
  S   S4        1.0  0.26908318734468706  0.7309168390371482  0.7309169368043379  1.0000
  S   S5        1.0  0.26908300458464796  0.7309169285563596  0.2690831385375351  1.0000
  S   S6        1.0  0.7309168089847098  0.26908314847178627  0.7309169187036678  1.0000
