data_image0
_chemical_formula_structural       Ti2IrO6
_chemical_formula_sum              "Ti2 Ir1 O6"
_cell_length_a       5.095257777369798
_cell_length_b       5.095257824687993
_cell_length_c       5.095257955656629
_cell_angle_alpha    60.00000283628233
_cell_angle_beta     60.00000203077444
_cell_angle_gamma    60.00000165107594

_space_group_name_H-M_alt    "P 1"
_space_group_IT_number       1

loop_
  _space_group_symop_operation_xyz
  'x, y, z'

loop_
  _atom_site_type_symbol
  _atom_site_label
  _atom_site_symmetry_multiplicity
  _atom_site_fract_x
  _atom_site_fract_y
  _atom_site_fract_z
  _atom_site_occupancy
  Ti  Ti1       1.0  0.24999951086559385  0.24999998068540608  0.2500001989484983  1.0000
  Ti  Ti2       1.0  0.7499998068087358  0.7500000694520658  0.7499995368841496  1.0000
  Ir  Ir1       1.0  1.2796124448058587e-08  2.403696638705028e-09  3.165227328181469e-08  1.0000
  O   O1        1.0  0.2601364875900136  0.2601362424775605  0.739863694474422  1.0000
  O   O2        1.0  0.7398637912195161  0.7398635961347275  0.26013647122299566  1.0000
  O   O3        1.0  0.7398636438936775  0.26013636854073985  0.26013634437979233  1.0000
  O   O4        1.0  0.2601366549661876  0.7398636070821916  0.7398637153106118  1.0000
  O   O5        1.0  0.2601361626999423  0.7398637730902624  0.26013657095639503  1.0000
  O   O6        1.0  0.7398639461150103  0.260136344350702  0.7398634245300355  1.0000
