data_image0
_chemical_formula_structural       Ti2MgF6
_chemical_formula_sum              "Ti2 Mg1 F6"
_cell_length_a       5.174268397216396
_cell_length_b       5.17426827970246
_cell_length_c       5.174268569984858
_cell_angle_alpha    60.00000180110803
_cell_angle_beta     60.000001211507595
_cell_angle_gamma    60.00000160926069

_space_group_name_H-M_alt    "P 1"
_space_group_IT_number       1

loop_
  _space_group_symop_operation_xyz
  'x, y, z'

loop_
  _atom_site_type_symbol
  _atom_site_label
  _atom_site_symmetry_multiplicity
  _atom_site_fract_x
  _atom_site_fract_y
  _atom_site_fract_z
  _atom_site_occupancy
  Ti  Ti1       1.0  0.2500000241782296  0.2499999596137469  0.24999999329998088  1.0000
  Ti  Ti2       1.0  0.7499999735736169  0.7500000753015268  0.749999979466347  1.0000
  Mg  Mg1       1.0  8.408227533629322e-09  0.999999988165044  2.6837688076707818e-08  1.0000
  F   F1        1.0  0.25519928330171804  0.25519932587774063  0.7448007127309691  1.0000
  F   F2        1.0  0.7448006776844569  0.7448007256064728  0.2551992759316455  1.0000
  F   F3        1.0  0.7448006112707702  0.25519928963158933  0.25519934604769096  1.0000
  F   F4        1.0  0.2551993145509532  0.7448007334487272  0.744800678264377  1.0000
  F   F5        1.0  0.2551993890710707  0.7448007032348518  0.2551993113539597  1.0000
  F   F6        1.0  0.7448006937995607  0.25519923700076846  0.7448007048456076  1.0000
