data_image0
_chemical_formula_structural       Ti2MnO6
_chemical_formula_sum              "Ti2 Mn1 O6"
_cell_length_a       4.6795653999497
_cell_length_b       4.679565236325146
_cell_length_c       4.679565968647366
_cell_angle_alpha    59.999995732790396
_cell_angle_beta     59.99999393603799
_cell_angle_gamma    59.99999754686309

_space_group_name_H-M_alt    "P 1"
_space_group_IT_number       1

loop_
  _space_group_symop_operation_xyz
  'x, y, z'

loop_
  _atom_site_type_symbol
  _atom_site_label
  _atom_site_symmetry_multiplicity
  _atom_site_fract_x
  _atom_site_fract_y
  _atom_site_fract_z
  _atom_site_occupancy
  Ti  Ti1       1.0  0.24999971679394592  0.2500007623389176  0.2499998001055283  1.0000
  Ti  Ti2       1.0  0.7499994081614263  0.7500002848438798  0.7500008986396537  1.0000
  Mn  Mn1       1.0  4.501441148844827e-08  0.9999999685933669  0.999999980374408  1.0000
  O   O1        1.0  0.26005660378399814  0.26005596640399803  0.7399436424463725  1.0000
  O   O2        1.0  0.7399442212120011  0.7399432304046443  0.2600559881971127  1.0000
  O   O3        1.0  0.7399435205472267  0.2600562516424984  0.26005615301433954  1.0000
  O   O4        1.0  0.2600563864130583  0.7399436413465071  0.7399435928307405  1.0000
  O   O5        1.0  0.26005649994820507  0.7399438263663716  0.2600560832626149  1.0000
  O   O6        1.0  0.7399436143835946  0.26005614775644526  0.7399437897224905  1.0000
