data_image0
_chemical_formula_structural       Ti2MnTe6
_chemical_formula_sum              "Ti2 Mn1 Te6"
_cell_length_a       6.891384207199952
_cell_length_b       6.89138428433393
_cell_length_c       6.891384201779716
_cell_angle_alpha    60.000000392555265
_cell_angle_beta     59.99999981430284
_cell_angle_gamma    60.000000053598676

_space_group_name_H-M_alt    "P 1"
_space_group_IT_number       1

loop_
  _space_group_symop_operation_xyz
  'x, y, z'

loop_
  _atom_site_type_symbol
  _atom_site_label
  _atom_site_symmetry_multiplicity
  _atom_site_fract_x
  _atom_site_fract_y
  _atom_site_fract_z
  _atom_site_occupancy
  Ti  Ti1       1.0  0.24999988856079633  0.2500000273539066  0.25000000377822007  1.0000
  Ti  Ti2       1.0  0.7500000238510716  0.7499999274443023  0.7499998660264084  1.0000
  Mn  Mn1       1.0  1.1728998868778243e-08  0.0  1.5901809852371814e-08  1.0000
  Te  Te1       1.0  0.2562037981421487  0.25620376896463404  0.743796223026659  1.0000
  Te  Te2       1.0  0.7437961989107301  0.7437962284866549  0.2562038443266355  1.0000
  Te  Te3       1.0  0.7437962517868999  0.25620378491111734  0.2562037948708559  1.0000
  Te  Te4       1.0  0.2562038281646561  0.7437962000996898  0.7437962445087772  1.0000
  Te  Te5       1.0  0.2562037426891119  0.7437962032845832  0.25620383954839543  1.0000
  Te  Te6       1.0  0.7437962548196532  0.25620385814632635  0.7437961767230111  1.0000
