data_image0
_chemical_formula_structural       Ti2MnS6
_chemical_formula_sum              "Ti2 Mn1 S6"
_cell_length_a       5.828623988495634
_cell_length_b       5.828625346216122
_cell_length_c       5.8286239827004875
_cell_angle_alpha    60.000010654769966
_cell_angle_beta     60.00000806447303
_cell_angle_gamma    60.000012473482414

_space_group_name_H-M_alt    "P 1"
_space_group_IT_number       1

loop_
  _space_group_symop_operation_xyz
  'x, y, z'

loop_
  _atom_site_type_symbol
  _atom_site_label
  _atom_site_symmetry_multiplicity
  _atom_site_fract_x
  _atom_site_fract_y
  _atom_site_fract_z
  _atom_site_occupancy
  Ti  Ti1       1.0  0.24999933268494548  0.25000044358388357  0.24999990756564888  1.0000
  Ti  Ti2       1.0  0.7500001044443999  0.7499992610123561  0.7500013205337931  1.0000
  Mn  Mn1       1.0  0.9999999720038356  4.832893827090515e-08  0.9999999383634882  1.0000
  S   S1        1.0  0.26715877967186963  0.26715892699648175  0.7328411700225036  1.0000
  S   S2        1.0  0.7328410028939012  0.732841536153979  0.26715819874049934  1.0000
  S   S3        1.0  0.7328413942728835  0.2671591404775575  0.2671584354100362  1.0000
  S   S4        1.0  0.26715893354504433  0.7328405368023431  0.7328415975298292  1.0000
  S   S5        1.0  0.2671589143952537  0.7328412478667028  0.2671585195836555  1.0000
  S   S6        1.0  0.7328415040854847  0.26715883495603454  0.7328408003066126  1.0000
