data_image0
_chemical_formula_structural       Ti2MgCl6
_chemical_formula_sum              "Ti2 Mg1 Cl6"
_cell_length_a       6.483318780419435
_cell_length_b       6.483318796689761
_cell_length_c       6.483318742019147
_cell_angle_alpha    59.999999181199804
_cell_angle_beta     59.999999653161055
_cell_angle_gamma    59.99999983495713

_space_group_name_H-M_alt    "P 1"
_space_group_IT_number       1

loop_
  _space_group_symop_operation_xyz
  'x, y, z'

loop_
  _atom_site_type_symbol
  _atom_site_label
  _atom_site_symmetry_multiplicity
  _atom_site_fract_x
  _atom_site_fract_y
  _atom_site_fract_z
  _atom_site_occupancy
  Ti  Ti1       1.0  0.24999995763740687  0.2499999525367432  0.2500000709636411  1.0000
  Ti  Ti2       1.0  0.7500000141323093  0.7500000484063913  0.7499999111498425  1.0000
  Mg  Mg1       1.0  0.9999999882704963  0.9999999924437162  2.6609513033581523e-08  1.0000
  Cl  Cl1       1.0  0.2560776940323033  0.2560776929123292  0.7439223184655491  1.0000
  Cl  Cl2       1.0  0.7439223259148081  0.7439223344777973  0.2560776895749575  1.0000
  Cl  Cl3       1.0  0.7439223493458302  0.25607762699338205  0.2560777062174475  1.0000
  Cl  Cl4       1.0  0.2560777142289143  0.7439223229448384  0.7439222894292172  1.0000
  Cl  Cl5       1.0  0.25607766281928035  0.7439223355714496  0.2560776746365131  1.0000
  Cl  Cl6       1.0  0.7439222863001215  0.25607770126403173  0.7439223131953134  1.0000
