data_image0
_chemical_formula_structural       Ti2MnSe6
_chemical_formula_sum              "Ti2 Mn1 Se6"
_cell_length_a       6.23410245397249
_cell_length_b       6.234102465576093
_cell_length_c       6.234102448445732
_cell_angle_alpha    60.000000602849745
_cell_angle_beta     60.00000196645304
_cell_angle_gamma    60.00000037911322

_space_group_name_H-M_alt    "P 1"
_space_group_IT_number       1

loop_
  _space_group_symop_operation_xyz
  'x, y, z'

loop_
  _atom_site_type_symbol
  _atom_site_label
  _atom_site_symmetry_multiplicity
  _atom_site_fract_x
  _atom_site_fract_y
  _atom_site_fract_z
  _atom_site_occupancy
  Ti  Ti1       1.0  0.2500002164554682  0.2500003831980551  0.24999971535164767  1.0000
  Ti  Ti2       1.0  0.7500000763085124  0.7499993736057766  0.7500009317326061  1.0000
  Mn  Mn1       1.0  0.9999999360128917  5.304390146800919e-08  0.9999998418554272  1.0000
  Se  Se1       1.0  0.2707846112721505  0.2707846153652813  0.7292152636161148  1.0000
  Se  Se2       1.0  0.7292154302205136  0.729215367366279  0.2707845620182516  1.0000
  Se  Se3       1.0  0.7292155851144533  0.2707848067830636  0.27078417482816397  1.0000
  Se  Se4       1.0  0.2707843167255124  0.729215505999437  0.7292154256765884  1.0000
  Se  Se5       1.0  0.27078472242937807  0.7292153455982627  0.270784370323376  1.0000
  Se  Se6       1.0  0.7292151520638762  0.2707845880185749  0.7292156195108592  1.0000
