data_image0
_chemical_formula_structural       Ti2MnBr6
_chemical_formula_sum              "Ti2 Mn1 Br6"
_cell_length_a       6.789273190585998
_cell_length_b       6.7892733773170395
_cell_length_c       6.78927335189813
_cell_angle_alpha    59.99999870634116
_cell_angle_beta     59.999998676486896
_cell_angle_gamma    59.99999950147662

_space_group_name_H-M_alt    "P 1"
_space_group_IT_number       1

loop_
  _space_group_symop_operation_xyz
  'x, y, z'

loop_
  _atom_site_type_symbol
  _atom_site_label
  _atom_site_symmetry_multiplicity
  _atom_site_fract_x
  _atom_site_fract_y
  _atom_site_fract_z
  _atom_site_occupancy
  Ti  Ti1       1.0  0.2500000491682413  0.2499998355794581  0.2500000987163433  1.0000
  Ti  Ti2       1.0  0.7499999252781031  0.7500000713719224  0.7499998171070207  1.0000
  Mn  Mn1       1.0  1.2592185794013372e-08  2.3451233158240562e-08  1.126142025637161e-09  1.0000
  Br  Br1       1.0  0.24931298989640555  0.24931300507163442  0.7506870162276674  1.0000
  Br  Br2       1.0  0.7506869757866386  0.7506870047043819  0.2493130720288678  1.0000
  Br  Br3       1.0  0.7506870230041001  0.24931298465063959  0.24931301355757243  1.0000
  Br  Br4       1.0  0.2493130318235691  0.7506870179096131  0.7506869880742696  1.0000
  Br  Br5       1.0  0.2493129835576349  0.7506870483991275  0.24931298923478531  1.0000
  Br  Br6       1.0  0.7506870061071534  0.2493130118872385  0.7506870072779702  1.0000
