data_image0
_chemical_formula_structural       Ti2MnCl6
_chemical_formula_sum              "Ti2 Mn1 Cl6"
_cell_length_a       6.465047716232318
_cell_length_b       6.465047661648166
_cell_length_c       6.46504769433381
_cell_angle_alpha    60.000000551030176
_cell_angle_beta     60.00000081979279
_cell_angle_gamma    60.00000080388167

_space_group_name_H-M_alt    "P 1"
_space_group_IT_number       1

loop_
  _space_group_symop_operation_xyz
  'x, y, z'

loop_
  _atom_site_type_symbol
  _atom_site_label
  _atom_site_symmetry_multiplicity
  _atom_site_fract_x
  _atom_site_fract_y
  _atom_site_fract_z
  _atom_site_occupancy
  Ti  Ti1       1.0  0.2499999458954867  0.2500002171800987  0.24999987055099981  1.0000
  Ti  Ti2       1.0  0.7500001069093124  0.7499998331553333  0.7500001847623986  1.0000
  Mn  Mn1       1.0  0.9999999778273889  7.577638526548088e-09  2.276527619691207e-08  1.0000
  Cl  Cl1       1.0  0.2522076699654909  0.2522077811687086  0.74779226101284  1.0000
  Cl  Cl2       1.0  0.747792338946046  0.7477922293841195  0.25220767527347493  1.0000
  Cl  Cl3       1.0  0.7477922935706276  0.25220780742640336  0.2522076383901536  1.0000
  Cl  Cl4       1.0  0.2522076965423337  0.7477921898655573  0.7477923417679048  1.0000
  Cl  Cl5       1.0  0.2522077334925943  0.7477922345158781  0.2522077312191072  1.0000
  Cl  Cl6       1.0  0.7477922326988666  0.2522077059437931  0.7477922723012764  1.0000
