data_image0
_chemical_formula_structural       Ti2MgBr6
_chemical_formula_sum              "Ti2 Mg1 Br6"
_cell_length_a       6.83177555459056
_cell_length_b       6.831775754464081
_cell_length_c       6.8317757159774
_cell_angle_alpha    59.99999902377548
_cell_angle_beta     59.99999842470178
_cell_angle_gamma    59.999998742011094

_space_group_name_H-M_alt    "P 1"
_space_group_IT_number       1

loop_
  _space_group_symop_operation_xyz
  'x, y, z'

loop_
  _atom_site_type_symbol
  _atom_site_label
  _atom_site_symmetry_multiplicity
  _atom_site_fract_x
  _atom_site_fract_y
  _atom_site_fract_z
  _atom_site_occupancy
  Ti  Ti1       1.0  0.24999995529072563  0.24999998967965115  0.2500000197215322  1.0000
  Ti  Ti2       1.0  0.7499999800201282  0.749999951111769  0.7500001222990822  1.0000
  Mg  Mg1       1.0  0.9999999867860538  0.9999999838655365  0.9999999956454774  1.0000
  Br  Br1       1.0  0.257558806856428  0.25755880337349657  0.7424411858106508  1.0000
  Br  Br2       1.0  0.7424412225573049  0.742441225261116  0.25755875399205674  1.0000
  Br  Br3       1.0  0.742441234702111  0.2575588326618412  0.2575587357028531  1.0000
  Br  Br4       1.0  0.25755878298281215  0.7424411905946167  0.7424412199720782  1.0000
  Br  Br5       1.0  0.25755878859668924  0.7424411955304735  0.2575587818250607  1.0000
  Br  Br6       1.0  0.7424412391268528  0.25755883310413885  0.7424411851702117  1.0000
