data_image0
_chemical_formula_structural       Ti2MnI6
_chemical_formula_sum              "Ti2 Mn1 I6"
_cell_length_a       7.428514925580397
_cell_length_b       7.42851500298966
_cell_length_c       7.428514937302385
_cell_angle_alpha    60.00000052089984
_cell_angle_beta     59.999999986367385
_cell_angle_gamma    60.00000133922887

_space_group_name_H-M_alt    "P 1"
_space_group_IT_number       1

loop_
  _space_group_symop_operation_xyz
  'x, y, z'

loop_
  _atom_site_type_symbol
  _atom_site_label
  _atom_site_symmetry_multiplicity
  _atom_site_fract_x
  _atom_site_fract_y
  _atom_site_fract_z
  _atom_site_occupancy
  Ti  Ti1       1.0  0.25000002957244666  0.2500000233358419  0.24999983961539898  1.0000
  Ti  Ti2       1.0  0.7499998893587001  0.7500001178200434  0.7500001680851576  1.0000
  Mn  Mn1       1.0  2.045793165315245e-08  4.1217688070419367e-08  0.9999998628152277  1.0000
  I   I1        1.0  0.25245174057283204  0.2524516807001465  0.7475483063899493  1.0000
  I   I2        1.0  0.7475483065775603  0.7475482576647146  0.2524517332118399  1.0000
  I   I3        1.0  0.7475482767938869  0.2524517363053261  0.25245171792458826  1.0000
  I   I4        1.0  0.25245167614861114  0.7475482515207599  0.7475483144349258  1.0000
  I   I5        1.0  0.2524517701416349  0.7475483047184183  0.25245172679318767  1.0000
  I   I6        1.0  0.7475482908422776  0.25245158748263224  0.7475483289737467  1.0000
