data_image0
_chemical_formula_structural       Ti2MoS6
_chemical_formula_sum              "Ti2 Mo1 S6"
_cell_length_a       6.0581254016157535
_cell_length_b       6.058125512202773
_cell_length_c       6.058125557846026
_cell_angle_alpha    60.00000795459116
_cell_angle_beta     60.000007373239185
_cell_angle_gamma    60.00000262455181

_space_group_name_H-M_alt    "P 1"
_space_group_IT_number       1

loop_
  _space_group_symop_operation_xyz
  'x, y, z'

loop_
  _atom_site_type_symbol
  _atom_site_label
  _atom_site_symmetry_multiplicity
  _atom_site_fract_x
  _atom_site_fract_y
  _atom_site_fract_z
  _atom_site_occupancy
  Ti  Ti1       1.0  0.24999963226425975  0.24999985877655936  0.24999993080476565  1.0000
  Ti  Ti2       1.0  0.7499999938568525  0.749999818928535  0.7500012602078088  1.0000
  Mo  Mo1       1.0  1.3155614913978746e-07  0.9999999312636744  0.9999998728509077  1.0000
  S   S1        1.0  0.27018917194661074  0.27018902664892297  0.7298110385999277  1.0000
  S   S2        1.0  0.7298107012948343  0.7298112191415289  0.27018869828152564  1.0000
  S   S3        1.0  0.7298113375394268  0.27018931075245795  0.27018883449818026  1.0000
  S   S4        1.0  0.2701887590386583  0.7298107510672648  0.7298109602820732  1.0000
  S   S5        1.0  0.2701893208101291  0.7298109813816088  0.27018863441740637  1.0000
  S   S6        1.0  0.7298109428450513  0.27018904809158834  0.7298107892732613  1.0000
