data_image0
_chemical_formula_structural       Ti2MgI6
_chemical_formula_sum              "Ti2 Mg1 I6"
_cell_length_a       7.545244610002112
_cell_length_b       7.545244705602683
_cell_length_c       7.545244683331207
_cell_angle_alpha    59.999999413006734
_cell_angle_beta     60.00000044813883
_cell_angle_gamma    60.00000019430708

_space_group_name_H-M_alt    "P 1"
_space_group_IT_number       1

loop_
  _space_group_symop_operation_xyz
  'x, y, z'

loop_
  _atom_site_type_symbol
  _atom_site_label
  _atom_site_symmetry_multiplicity
  _atom_site_fract_x
  _atom_site_fract_y
  _atom_site_fract_z
  _atom_site_occupancy
  Ti  Ti1       1.0  0.24999998658566705  0.25000001981697734  0.2500000073412136  1.0000
  Ti  Ti2       1.0  0.7499999788640842  0.7500000204941075  0.7500000915887248  1.0000
  Mg  Mg1       1.0  0.9999999787445768  1.7855211350872858e-08  0.999999967241316  1.0000
  I   I1        1.0  0.258550547714042  0.2585505617875541  0.741449448949791  1.0000
  I   I2        1.0  0.7414494288355451  0.7414494314507029  0.2585505460355418  1.0000
  I   I3        1.0  0.7414494188903225  0.25855059469557606  0.2585505098112303  1.0000
  I   I4        1.0  0.2585505885292055  0.7414494115282895  0.7414494181848336  1.0000
  I   I5        1.0  0.25855057052940245  0.7414494588837671  0.25855056285715705  1.0000
  I   I6        1.0  0.7414494941795184  0.2585504856584595  0.7414494508313285  1.0000
