data_image0
_chemical_formula_structural       Ti2NbSe6
_chemical_formula_sum              "Ti2 Nb1 Se6"
_cell_length_a       6.57774106136134
_cell_length_b       6.577741104106259
_cell_length_c       6.577741241686054
_cell_angle_alpha    59.99999908722059
_cell_angle_beta     59.999999319863235
_cell_angle_gamma    60.00000105373701

_space_group_name_H-M_alt    "P 1"
_space_group_IT_number       1

loop_
  _space_group_symop_operation_xyz
  'x, y, z'

loop_
  _atom_site_type_symbol
  _atom_site_label
  _atom_site_symmetry_multiplicity
  _atom_site_fract_x
  _atom_site_fract_y
  _atom_site_fract_z
  _atom_site_occupancy
  Ti  Ti1       1.0  0.25000007549177605  0.2500001764346807  0.2499998556762947  1.0000
  Ti  Ti2       1.0  0.7499999143462472  0.7500001122264301  0.7499996990295876  1.0000
  Nb  Nb1       1.0  0.9999999678691659  2.792930292945006e-08  1.7085170278934998e-07  1.0000
  Se  Se1       1.0  0.2649511297274057  0.2649510517245841  0.7350489363943861  1.0000
  Se  Se2       1.0  0.73504888354033  0.73504889806097  0.2649512093138526  1.0000
  Se  Se3       1.0  0.7350489234333055  0.2649510047348936  0.264951226681425  1.0000
  Se  Se4       1.0  0.26495116386835366  0.7350487756128841  0.7350489074378709  1.0000
  Se  Se5       1.0  0.2649511489694092  0.7350487380917322  0.2649511529077041  1.0000
  Se  Se6       1.0  0.7350487911893757  0.2649512098318677  0.7350488417714264  1.0000
