data_image0
_chemical_formula_structural       Ti2NiBr6
_chemical_formula_sum              "Ti2 Ni1 Br6"
_cell_length_a       6.742001330653901
_cell_length_b       6.7420013235038
_cell_length_c       6.742001331247459
_cell_angle_alpha    59.999998974252335
_cell_angle_beta     59.99999983085264
_cell_angle_gamma    59.99999890705005

_space_group_name_H-M_alt    "P 1"
_space_group_IT_number       1

loop_
  _space_group_symop_operation_xyz
  'x, y, z'

loop_
  _atom_site_type_symbol
  _atom_site_label
  _atom_site_symmetry_multiplicity
  _atom_site_fract_x
  _atom_site_fract_y
  _atom_site_fract_z
  _atom_site_occupancy
  Ti  Ti1       1.0  0.2500000598472285  0.24999998436474083  0.24999992593267603  1.0000
  Ti  Ti2       1.0  0.7499999449673791  0.7500001892508578  0.7500000069089229  1.0000
  Ni  Ni1       1.0  7.56021036244955e-09  0.999999992733642  0.9999999909536392  1.0000
  Br  Br1       1.0  0.25078741355763134  0.2507873598159288  0.7492126213236834  1.0000
  Br  Br2       1.0  0.7492125876446825  0.7492126139748242  0.25078736725607453  1.0000
  Br  Br3       1.0  0.7492125929043592  0.25078733944824877  0.2507874487671043  1.0000
  Br  Br4       1.0  0.25078741044404723  0.749212581661408  0.7492126080940896  1.0000
  Br  Br5       1.0  0.2507873875695793  0.749212570580086  0.25078741052545567  1.0000
  Br  Br6       1.0  0.7492125935998335  0.2507873759618244  0.7492126165275654  1.0000
