data_image0
_chemical_formula_structural       Ti2NbS6
_chemical_formula_sum              "Ti2 Nb1 S6"
_cell_length_a       6.125192559093663
_cell_length_b       6.1251929662997355
_cell_length_c       6.125192689859511
_cell_angle_alpha    59.999999982728056
_cell_angle_beta     59.99999909462978
_cell_angle_gamma    59.99999917447728

_space_group_name_H-M_alt    "P 1"
_space_group_IT_number       1

loop_
  _space_group_symop_operation_xyz
  'x, y, z'

loop_
  _atom_site_type_symbol
  _atom_site_label
  _atom_site_symmetry_multiplicity
  _atom_site_fract_x
  _atom_site_fract_y
  _atom_site_fract_z
  _atom_site_occupancy
  Ti  Ti1       1.0  0.250000053135852  0.24999978448975282  0.2500000216442679  1.0000
  Ti  Ti2       1.0  0.749999884960324  0.7500001032894342  0.7500000590757651  1.0000
  Nb  Nb1       1.0  3.49784359617295e-08  1.0997362335214358e-07  1.731706255057328e-08  1.0000
  S   S1        1.0  0.27093467202601806  0.2709347331506577  0.7290653625037816  1.0000
  S   S2        1.0  0.7290654560503947  0.7290653085916015  0.2709345315511796  1.0000
  S   S3        1.0  0.729065473900647  0.2709346517486728  0.27093456787771364  1.0000
  S   S4        1.0  0.27093463618344504  0.7290652460281138  0.7290653679737049  1.0000
  S   S5        1.0  0.2709345291091422  0.72906531551176  0.27093471528082474  1.0000
  S   S6        1.0  0.7290652551809078  0.27093476222187374  0.7290653702214696  1.0000
