data_image0
_chemical_formula_structural       Ti2NiSe6
_chemical_formula_sum              "Ti2 Ni1 Se6"
_cell_length_a       6.309729499316991
_cell_length_b       6.3097292411994665
_cell_length_c       6.309729177432225
_cell_angle_alpha    60.000000323348644
_cell_angle_beta     60.000002256257446
_cell_angle_gamma    60.00000204729763

_space_group_name_H-M_alt    "P 1"
_space_group_IT_number       1

loop_
  _space_group_symop_operation_xyz
  'x, y, z'

loop_
  _atom_site_type_symbol
  _atom_site_label
  _atom_site_symmetry_multiplicity
  _atom_site_fract_x
  _atom_site_fract_y
  _atom_site_fract_z
  _atom_site_occupancy
  Ti  Ti1       1.0  0.24999993175835486  0.24999987634485185  0.25000018437267585  1.0000
  Ti  Ti2       1.0  0.7500000727101465  0.7500001472927439  0.7499996116664459  1.0000
  Ni  Ni1       1.0  0.9999999987059724  3.882083638528343e-09  3.19879075548083e-08  1.0000
  Se  Se1       1.0  0.25829847877778767  0.2582985126682198  0.741701577091193  1.0000
  Se  Se2       1.0  0.7417015681525679  0.7417014275045755  0.2582986594357316  1.0000
  Se  Se3       1.0  0.7417014285640768  0.25829843202794817  0.25829859495498647  1.0000
  Se  Se4       1.0  0.25829856351919694  0.7417016013148563  0.7417013070245134  1.0000
  Se  Se5       1.0  0.25829844438968486  0.7417015111848199  0.25829854693081744  1.0000
  Se  Se6       1.0  0.7417015128310236  0.25829849498339735  0.7417014716493788  1.0000
