data_image0
_chemical_formula_structural       Ti2NiO6
_chemical_formula_sum              "Ti2 Ni1 O6"
_cell_length_a       4.571754749480552
_cell_length_b       4.571754312933496
_cell_length_c       4.571754409316433
_cell_angle_alpha    59.999995064413284
_cell_angle_beta     59.99999984209652
_cell_angle_gamma    59.99999689771725

_space_group_name_H-M_alt    "P 1"
_space_group_IT_number       1

loop_
  _space_group_symop_operation_xyz
  'x, y, z'

loop_
  _atom_site_type_symbol
  _atom_site_label
  _atom_site_symmetry_multiplicity
  _atom_site_fract_x
  _atom_site_fract_y
  _atom_site_fract_z
  _atom_site_occupancy
  Ti  Ti1       1.0  0.2500019436712492  0.2500003609813848  0.24999882494912554  1.0000
  Ti  Ti2       1.0  0.7499990677689782  0.7500002096100545  0.7500006387373397  1.0000
  Ni  Ni1       1.0  0.9999999208357666  0.9999999571369823  4.142682080747034e-09  1.0000
  O   O1        1.0  0.2606832039610584  0.26068470764988644  0.7393160002113075  1.0000
  O   O2        1.0  0.7393165189339947  0.7393153110801812  0.26068406870092425  1.0000
  O   O3        1.0  0.7393153928984122  0.2606835486736617  0.26068448192905236  1.0000
  O   O4        1.0  0.26068431956554117  0.7393162664570638  0.7393157355579448  1.0000
  O   O5        1.0  0.2606845089623237  0.7393160998690594  0.2606834762049676  1.0000
  O   O6        1.0  0.7393151931974548  0.260683549167471  0.7393167398001125  1.0000
