data_image0
_chemical_formula_structural       Ti2NiI6
_chemical_formula_sum              "Ti2 Ni1 I6"
_cell_length_a       7.334009050875082
_cell_length_b       7.334009079875335
_cell_length_c       7.33400903635892
_cell_angle_alpha    59.99999955344878
_cell_angle_beta     59.99999961185747
_cell_angle_gamma    59.99999955227815

_space_group_name_H-M_alt    "P 1"
_space_group_IT_number       1

loop_
  _space_group_symop_operation_xyz
  'x, y, z'

loop_
  _atom_site_type_symbol
  _atom_site_label
  _atom_site_symmetry_multiplicity
  _atom_site_fract_x
  _atom_site_fract_y
  _atom_site_fract_z
  _atom_site_occupancy
  Ti  Ti1       1.0  0.2500000111899825  0.2500000421361954  0.2499999796946088  1.0000
  Ti  Ti2       1.0  0.74999999778886  0.7500000212015615  0.7500000722993767  1.0000
  Ni  Ni1       1.0  3.261861975951343e-08  0.9999999682708974  0.9999999722850269  1.0000
  I   I1        1.0  0.25132543698696297  0.2513254658297818  0.748674540187957  1.0000
  I   I2        1.0  0.7486745634838757  0.7486745757985899  0.251325421924397  1.0000
  I   I3        1.0  0.7486745472099158  0.25132544089693876  0.25132542904113603  1.0000
  I   I4        1.0  0.2513254220912828  0.7486745289234638  0.7486745981951305  1.0000
  I   I5        1.0  0.25132545205087203  0.7486745450549003  0.2513254211034577  1.0000
  I   I6        1.0  0.7486745405968929  0.2513254114058801  0.7486745643245469  1.0000
