data_image0
_chemical_formula_structural       Ti2NiTe6
_chemical_formula_sum              "Ti2 Ni1 Te6"
_cell_length_a       6.856812679213311
_cell_length_b       6.856812541394826
_cell_length_c       6.856812658058153
_cell_angle_alpha    59.999999389252686
_cell_angle_beta     59.99999929378848
_cell_angle_gamma    59.99999934743704

_space_group_name_H-M_alt    "P 1"
_space_group_IT_number       1

loop_
  _space_group_symop_operation_xyz
  'x, y, z'

loop_
  _atom_site_type_symbol
  _atom_site_label
  _atom_site_symmetry_multiplicity
  _atom_site_fract_x
  _atom_site_fract_y
  _atom_site_fract_z
  _atom_site_occupancy
  Ti  Ti1       1.0  0.2500000080526569  0.24999988408675117  0.2500000553710342  1.0000
  Ti  Ti2       1.0  0.7500000137939613  0.7499999309031361  0.7499998715492742  1.0000
  Ni  Ni1       1.0  0.9999999881097116  5.3585169235968085e-09  0.9999999857650431  1.0000
  Te  Te1       1.0  0.25724951567376714  0.25724952121435474  0.7427504772577536  1.0000
  Te  Te2       1.0  0.7427504307449996  0.7427505402673141  0.257249600391967  1.0000
  Te  Te3       1.0  0.7427504753088366  0.2572495372470017  0.257249537670041  1.0000
  Te  Te4       1.0  0.2572495491702127  0.7427505224484949  0.7427504551737099  1.0000
  Te  Te5       1.0  0.2572495196811887  0.7427504712165743  0.2572495556641455  1.0000
  Te  Te6       1.0  0.7427504945915914  0.25724959383743934  0.7427504629379387  1.0000
