data_image0
_chemical_formula_structural       Ti2NiCl6
_chemical_formula_sum              "Ti2 Ni1 Cl6"
_cell_length_a       6.418184709747823
_cell_length_b       6.4181847797573575
_cell_length_c       6.418184725678468
_cell_angle_alpha    60.00000000433785
_cell_angle_beta     60.00000025111223
_cell_angle_gamma    60.00000023072931

_space_group_name_H-M_alt    "P 1"
_space_group_IT_number       1

loop_
  _space_group_symop_operation_xyz
  'x, y, z'

loop_
  _atom_site_type_symbol
  _atom_site_label
  _atom_site_symmetry_multiplicity
  _atom_site_fract_x
  _atom_site_fract_y
  _atom_site_fract_z
  _atom_site_occupancy
  Ti  Ti1       1.0  0.24999980091804325  0.25000013836048113  0.24999997082274655  1.0000
  Ti  Ti2       1.0  0.75000005189551  0.7499998979479049  0.7500001549627652  1.0000
  Ni  Ni1       1.0  2.424274866183269e-08  0.9999999866423072  0.9999999914413262  1.0000
  Cl  Cl1       1.0  0.2503001937951347  0.2503002415525345  0.7496998049238012  1.0000
  Cl  Cl2       1.0  0.7496998285898004  0.7496997394168387  0.2503001764934415  1.0000
  Cl  Cl3       1.0  0.749699851731559  0.25030022741332764  0.25030022671928354  1.0000
  Cl  Cl4       1.0  0.2503001653651874  0.7496997478313199  0.7496998053885316  1.0000
  Cl  Cl5       1.0  0.25030027744901157  0.749699784361892  0.25030013649251137  1.0000
  Cl  Cl6       1.0  0.7496998102120217  0.2503002328640763  0.7496997396258316  1.0000
