data_image0
_chemical_formula_structural       Ti2NiS6
_chemical_formula_sum              "Ti2 Ni1 S6"
_cell_length_a       5.890239124177709
_cell_length_b       5.890239006618159
_cell_length_c       5.890239126458535
_cell_angle_alpha    59.99999872699043
_cell_angle_beta     59.999999179073605
_cell_angle_gamma    59.99999845092046

_space_group_name_H-M_alt    "P 1"
_space_group_IT_number       1

loop_
  _space_group_symop_operation_xyz
  'x, y, z'

loop_
  _atom_site_type_symbol
  _atom_site_label
  _atom_site_symmetry_multiplicity
  _atom_site_fract_x
  _atom_site_fract_y
  _atom_site_fract_z
  _atom_site_occupancy
  Ti  Ti1       1.0  0.25000004306908474  0.24999977410879473  0.2499999965252992  1.0000
  Ti  Ti2       1.0  0.7499998955702171  0.7500003349351447  0.7500002995522975  1.0000
  Ni  Ni1       1.0  4.748706911782179e-08  0.9999998398955351  0.9999998423954813  1.0000
  S   S1        1.0  0.2582894629109416  0.2582893721854646  0.7417107466813443  1.0000
  S   S2        1.0  0.7417104947578131  0.7417107326999184  0.25828923637049445  1.0000
  S   S3        1.0  0.7417105729828057  0.25828943302751645  0.25828938737903556  1.0000
  S   S4        1.0  0.25828927914230104  0.7417107238398366  0.7417105868014396  1.0000
  S   S5        1.0  0.25828946001862557  0.7417105988156363  0.2582893430525112  1.0000
  S   S6        1.0  0.7417107161067166  0.25828922120855424  0.7417105645472973  1.0000
