data_image0
_chemical_formula_structural       Ti2OsS6
_chemical_formula_sum              "Ti2 Os1 S6"
_cell_length_a       5.996051649497524
_cell_length_b       5.996051262004586
_cell_length_c       5.99605154055736
_cell_angle_alpha    60.000000108810546
_cell_angle_beta     59.999997589470425
_cell_angle_gamma    59.99999976702658

_space_group_name_H-M_alt    "P 1"
_space_group_IT_number       1

loop_
  _space_group_symop_operation_xyz
  'x, y, z'

loop_
  _atom_site_type_symbol
  _atom_site_label
  _atom_site_symmetry_multiplicity
  _atom_site_fract_x
  _atom_site_fract_y
  _atom_site_fract_z
  _atom_site_occupancy
  Ti  Ti1       1.0  0.24999998673067053  0.24999997150657674  0.25000005661262864  1.0000
  Ti  Ti2       1.0  0.7499999557930337  0.7500000779265887  0.7500001136826464  1.0000
  Os  Os1       1.0  0.9999999977438241  0.9999999836593129  0.9999999642687984  1.0000
  S   S1        1.0  0.27180927915082864  0.27180926285197204  0.7281907894746922  1.0000
  S   S2        1.0  0.728190675958803  0.7281907661553334  0.2718092830069338  1.0000
  S   S3        1.0  0.7281907963806711  0.2718092600775906  0.2718092014932733  1.0000
  S   S4        1.0  0.27180921955586707  0.7281907771000561  0.7281907564370466  1.0000
  S   S5        1.0  0.2718093958507551  0.7281906306248488  0.2718092192053237  1.0000
  S   S6        1.0  0.7281907355952331  0.2718092737847242  0.728190640617396  1.0000
