data_image0
_chemical_formula_structural       Ti2OsO6
_chemical_formula_sum              "Ti2 Os1 O6"
_cell_length_a       5.091568635721904
_cell_length_b       5.09156846309326
_cell_length_c       5.091568677009181
_cell_angle_alpha    60.000000994118786
_cell_angle_beta     60.000000835043764
_cell_angle_gamma    59.999999538719955

_space_group_name_H-M_alt    "P 1"
_space_group_IT_number       1

loop_
  _space_group_symop_operation_xyz
  'x, y, z'

loop_
  _atom_site_type_symbol
  _atom_site_label
  _atom_site_symmetry_multiplicity
  _atom_site_fract_x
  _atom_site_fract_y
  _atom_site_fract_z
  _atom_site_occupancy
  Ti  Ti1       1.0  0.2500002338406373  0.2499999005734295  0.24999993181918667  1.0000
  Ti  Ti2       1.0  0.750000155853856  0.7500000120216992  0.7499997540543522  1.0000
  Os  Os1       1.0  0.9999999665322582  0.9999999711347517  0.9999999859937755  1.0000
  O   O1        1.0  0.25754180423744855  0.2575420451293951  0.7424581691087667  1.0000
  O   O2        1.0  0.7424580883104456  0.7424580117919812  0.25754199563575914  1.0000
  O   O3        1.0  0.7424577030023728  0.25754202701560747  0.2575419339579222  1.0000
  O   O4        1.0  0.25754206339393587  0.7424579457154608  0.742458174906985  1.0000
  O   O5        1.0  0.25754181060051884  0.7424582184739701  0.25754213086432637  1.0000
  O   O6        1.0  0.7424582154764451  0.25754185288002723  0.7424578715179491  1.0000
