data_image0
_chemical_formula_structural       Ti2OsSe6
_chemical_formula_sum              "Ti2 Os1 Se6"
_cell_length_a       6.338828329636772
_cell_length_b       6.338828450192802
_cell_length_c       6.3388285769150015
_cell_angle_alpha    59.99999833120295
_cell_angle_beta     59.99999746439711
_cell_angle_gamma    59.99999905917449

_space_group_name_H-M_alt    "P 1"
_space_group_IT_number       1

loop_
  _space_group_symop_operation_xyz
  'x, y, z'

loop_
  _atom_site_type_symbol
  _atom_site_label
  _atom_site_symmetry_multiplicity
  _atom_site_fract_x
  _atom_site_fract_y
  _atom_site_fract_z
  _atom_site_occupancy
  Ti  Ti1       1.0  0.2499998763522952  0.25000025131967374  0.24999980278982362  1.0000
  Ti  Ti2       1.0  0.7499998806949136  0.7499999443960039  0.7499998340467745  1.0000
  Os  Os1       1.0  0.999999975785255  0.9999999961357376  0.9999999809103544  1.0000
  Se  Se1       1.0  0.27304267428445617  0.27304271450492545  0.7269573440382342  1.0000
  Se  Se2       1.0  0.7269574623851071  0.7269571566126897  0.2730428032405027  1.0000
  Se  Se3       1.0  0.726957441542065  0.27304249191020435  0.2730427877828461  1.0000
  Se  Se4       1.0  0.27304279515307317  0.7269572922615019  0.7269574034385713  1.0000
  Se  Se5       1.0  0.27304262984907124  0.72695735713818  0.27304266086565804  1.0000
  Se  Se6       1.0  0.7269572756342398  0.27304279220634314  0.7269574187205519  1.0000
