data_image0
_chemical_formula_structural       Ti2PdS6
_chemical_formula_sum              "Ti2 Pd1 S6"
_cell_length_a       6.097407426901436
_cell_length_b       6.097407342375592
_cell_length_c       6.097407543768496
_cell_angle_alpha    59.99999999667713
_cell_angle_beta     60.00000029013662
_cell_angle_gamma    60.000001352461624

_space_group_name_H-M_alt    "P 1"
_space_group_IT_number       1

loop_
  _space_group_symop_operation_xyz
  'x, y, z'

loop_
  _atom_site_type_symbol
  _atom_site_label
  _atom_site_symmetry_multiplicity
  _atom_site_fract_x
  _atom_site_fract_y
  _atom_site_fract_z
  _atom_site_occupancy
  Ti  Ti1       1.0  0.2499999255851191  0.250000007482032  0.24999994839931694  1.0000
  Ti  Ti2       1.0  0.7500000507953912  0.7500000184288392  0.7500000185143226  1.0000
  Pd  Pd1       1.0  0.9999999747313302  0.9999999678618849  7.626458876100302e-08  1.0000
  S   S1        1.0  0.26831531550719034  0.26831532514388756  0.731684678219131  1.0000
  S   S2        1.0  0.7316846178912972  0.7316846706375008  0.2683153924919529  1.0000
  S   S3        1.0  0.7316846955990133  0.2683153432072835  0.2683153295381964  1.0000
  S   S4        1.0  0.2683153294842081  0.7316846445395769  0.7316846239058866  1.0000
  S   S5        1.0  0.26831534486073466  0.7316847388589022  0.26831529781948454  1.0000
  S   S6        1.0  0.7316847091637944  0.2683152870519705  0.7316846351922692  1.0000
