data_image0
_chemical_formula_structural       Ti2PS6
_chemical_formula_sum              "Ti2 P1 S6"
_cell_length_a       6.008812350487992
_cell_length_b       6.008813161015171
_cell_length_c       6.00881298159041
_cell_angle_alpha    60.000001248010555
_cell_angle_beta     59.99999928287433
_cell_angle_gamma    60.00000622989219

_space_group_name_H-M_alt    "P 1"
_space_group_IT_number       1

loop_
  _space_group_symop_operation_xyz
  'x, y, z'

loop_
  _atom_site_type_symbol
  _atom_site_label
  _atom_site_symmetry_multiplicity
  _atom_site_fract_x
  _atom_site_fract_y
  _atom_site_fract_z
  _atom_site_occupancy
  Ti  Ti1       1.0  0.24999986084461598  0.2500002944406354  0.250000041093259  1.0000
  Ti  Ti2       1.0  0.750000242965469  0.7500000089137713  0.7500003334498229  1.0000
  P   P1        1.0  0.9999999697959951  3.872670043872266e-08  9.052429309670221e-09  1.0000
  S   S1        1.0  0.2533082916216383  0.2533084928358098  0.7466915600280469  1.0000
  S   S2        1.0  0.7466917838163499  0.7466914171368412  0.2533083180975218  1.0000
  S   S3        1.0  0.7466916238702026  0.25330856925525186  0.253308294022036  1.0000
  S   S4        1.0  0.25330824293398146  0.7466916668369858  0.7466913389677508  1.0000
  S   S5        1.0  0.2533085926571796  0.7466912914078978  0.25330839763607715  1.0000
  S   S6        1.0  0.7466913940607113  0.2533081986857735  0.7466916698843614  1.0000
