data_image0
_chemical_formula_structural       Ti2PbS6
_chemical_formula_sum              "Ti2 Pb1 S6"
_cell_length_a       6.384481972462405
_cell_length_b       6.384482048640142
_cell_length_c       6.384481959952076
_cell_angle_alpha    60.000000742408666
_cell_angle_beta     60.000001147361445
_cell_angle_gamma    60.000000498742786

_space_group_name_H-M_alt    "P 1"
_space_group_IT_number       1

loop_
  _space_group_symop_operation_xyz
  'x, y, z'

loop_
  _atom_site_type_symbol
  _atom_site_label
  _atom_site_symmetry_multiplicity
  _atom_site_fract_x
  _atom_site_fract_y
  _atom_site_fract_z
  _atom_site_occupancy
  Ti  Ti1       1.0  0.24999989023375083  0.25000001595461474  0.25000005418827786  1.0000
  Ti  Ti2       1.0  0.7500000834675888  0.7499999001535768  0.7499999846141661  1.0000
  Pb  Pb1       1.0  1.3299672313468568e-08  0.9999999980816848  0.9999999723811525  1.0000
  S   S1        1.0  0.274109816267942  0.2741098011420816  0.72589014087698  1.0000
  S   S2        1.0  0.7258902798888014  0.7258901111294792  0.27410981512161176  1.0000
  S   S3        1.0  0.7258902338468646  0.2741098057597507  0.2741097924976336  1.0000
  S   S4        1.0  0.2741097263697993  0.7258902484671315  0.7258901918192924  1.0000
  S   S5        1.0  0.2741097532239599  0.7258902507846943  0.2741098122652367  1.0000
  S   S6        1.0  0.7258901930159474  0.2741098725015331  0.7258902290904757  1.0000
