data_image0
_chemical_formula_structural       Ti2PtS6
_chemical_formula_sum              "Ti2 Pt1 S6"
_cell_length_a       6.148149463699634
_cell_length_b       6.148149528962688
_cell_length_c       6.148149634813801
_cell_angle_alpha    59.99999882717672
_cell_angle_beta     59.99999993494287
_cell_angle_gamma    59.99999909235909

_space_group_name_H-M_alt    "P 1"
_space_group_IT_number       1

loop_
  _space_group_symop_operation_xyz
  'x, y, z'

loop_
  _atom_site_type_symbol
  _atom_site_label
  _atom_site_symmetry_multiplicity
  _atom_site_fract_x
  _atom_site_fract_y
  _atom_site_fract_z
  _atom_site_occupancy
  Ti  Ti1       1.0  0.25000000216936064  0.24999999555167388  0.2499999532427983  1.0000
  Ti  Ti2       1.0  0.7499999176469335  0.750000050400762  0.7500002593944383  1.0000
  Pt  Pt1       1.0  0.9999999912733825  0.9999999980079463  0.9999999386726047  1.0000
  S   S1        1.0  0.26280217696091085  0.2628021298304668  0.7371978170453701  1.0000
  S   S2        1.0  0.7371978578963833  0.737197858352391  0.26280207906466013  1.0000
  S   S3        1.0  0.7371979281897201  0.26280214952671466  0.26280211959688765  1.0000
  S   S4        1.0  0.26280205559681685  0.7371978904495593  0.7371978737421501  1.0000
  S   S5        1.0  0.2628022348622806  0.7371978812834231  0.2628020121999182  1.0000
  S   S6        1.0  0.737197820901813  0.26280206108218085  0.737197951666531  1.0000
