data_image0
_chemical_formula_structural       Ti2PO6
_chemical_formula_sum              "Ti2 P1 O6"
_cell_length_a       4.742078233770229
_cell_length_b       4.74207772546496
_cell_length_c       4.742078298655988
_cell_angle_alpha    59.999999262712585
_cell_angle_beta     59.99999871892642
_cell_angle_gamma    60.00000012906997

_space_group_name_H-M_alt    "P 1"
_space_group_IT_number       1

loop_
  _space_group_symop_operation_xyz
  'x, y, z'

loop_
  _atom_site_type_symbol
  _atom_site_label
  _atom_site_symmetry_multiplicity
  _atom_site_fract_x
  _atom_site_fract_y
  _atom_site_fract_z
  _atom_site_occupancy
  Ti  Ti1       1.0  0.24999995541787048  0.25000024612476934  0.2499999208369721  1.0000
  Ti  Ti2       1.0  0.7500000028002443  0.7499999196527516  0.7500001563178578  1.0000
  P   P1        1.0  2.435009441689108e-08  1.277652660098752e-15  2.5864121853230766e-09  1.0000
  O   O1        1.0  0.24878699804661245  0.24878700343218046  0.7512130125531793  1.0000
  O   O2        1.0  0.7512130535671216  0.7512129040735516  0.24878701418658652  1.0000
  O   O3        1.0  0.7512130067981857  0.24878706949252016  0.24878693312414032  1.0000
  O   O4        1.0  0.24878697887189904  0.7512129335737693  0.7512130366315738  1.0000
  O   O5        1.0  0.24878702313346898  0.7512129521672883  0.2487869991477256  1.0000
  O   O6        1.0  0.75121303061986  0.24878697083474802  0.7512129449667903  1.0000
