data_image0
_chemical_formula_structural       Ti2PdO6
_chemical_formula_sum              "Ti2 Pd1 O6"
_cell_length_a       5.029186614156029
_cell_length_b       5.02918626668361
_cell_length_c       5.029186262674463
_cell_angle_alpha    60.000003282525654
_cell_angle_beta     60.00000078189313
_cell_angle_gamma    60.000001652673724

_space_group_name_H-M_alt    "P 1"
_space_group_IT_number       1

loop_
  _space_group_symop_operation_xyz
  'x, y, z'

loop_
  _atom_site_type_symbol
  _atom_site_label
  _atom_site_symmetry_multiplicity
  _atom_site_fract_x
  _atom_site_fract_y
  _atom_site_fract_z
  _atom_site_occupancy
  Ti  Ti1       1.0  0.25000032227289143  0.24999955906399138  0.25000016970024835  1.0000
  Ti  Ti2       1.0  0.7500004427097069  0.7499997535832248  0.7500000699113896  1.0000
  Pd  Pd1       1.0  0.9999999990728644  0.9999999683414303  0.999999944710695  1.0000
  O   O1        1.0  0.2647063851219014  0.26470691836640625  0.7352932815835223  1.0000
  O   O2        1.0  0.7352933025553559  0.7352934633662246  0.2647066439951983  1.0000
  O   O3        1.0  0.7352932373791077  0.2647067725368088  0.26470647023154775  1.0000
  O   O4        1.0  0.2647064617105572  0.7352934923026502  0.735293436505395  1.0000
  O   O5        1.0  0.26470644778446606  0.7352935696223705  0.26470658690428117  1.0000
  O   O6        1.0  0.7352934171305066  0.2647065077009659  0.7352933445968152  1.0000
