data_image0
_chemical_formula_structural       Ti2PbTe6
_chemical_formula_sum              "Ti2 Pb1 Te6"
_cell_length_a       7.337814874295458
_cell_length_b       7.337814988248259
_cell_length_c       7.337814999940932
_cell_angle_alpha    59.99999992788378
_cell_angle_beta     60.000000309787026
_cell_angle_gamma    59.999999809722716

_space_group_name_H-M_alt    "P 1"
_space_group_IT_number       1

loop_
  _space_group_symop_operation_xyz
  'x, y, z'

loop_
  _atom_site_type_symbol
  _atom_site_label
  _atom_site_symmetry_multiplicity
  _atom_site_fract_x
  _atom_site_fract_y
  _atom_site_fract_z
  _atom_site_occupancy
  Ti  Ti1       1.0  0.24999996392217924  0.2500000268288842  0.2500000239637678  1.0000
  Ti  Ti2       1.0  0.7500000275132965  0.7500000037086683  0.7499999919831875  1.0000
  Pb  Pb1       1.0  0.9999999779691803  2.069874467229859e-16  0.999999985122143  1.0000
  Te  Te1       1.0  0.27971049461539155  0.2797105009219597  0.7202895026877848  1.0000
  Te  Te2       1.0  0.7202895085200682  0.7202894661903017  0.2797105214053783  1.0000
  Te  Te3       1.0  0.7202894933995196  0.27971052275601005  0.2797104731410284  1.0000
  Te  Te4       1.0  0.2797104848741758  0.7202895378251016  0.7202894866669145  1.0000
  Te  Te5       1.0  0.2797105278981888  0.720289472617301  0.2797104807045459  1.0000
  Te  Te6       1.0  0.7202895244016266  0.2797104744659206  0.7202895274581561  1.0000
