data_image0
_chemical_formula_structural       Ti2RuO6
_chemical_formula_sum              "Ti2 Ru1 O6"
_cell_length_a       5.051151175716124
_cell_length_b       5.051151178930892
_cell_length_c       5.05115122456222
_cell_angle_alpha    60.00000199824791
_cell_angle_beta     60.00000139226106
_cell_angle_gamma    60.00000021921592

_space_group_name_H-M_alt    "P 1"
_space_group_IT_number       1

loop_
  _space_group_symop_operation_xyz
  'x, y, z'

loop_
  _atom_site_type_symbol
  _atom_site_label
  _atom_site_symmetry_multiplicity
  _atom_site_fract_x
  _atom_site_fract_y
  _atom_site_fract_z
  _atom_site_occupancy
  Ti  Ti1       1.0  0.2500002123536815  0.24999984334665046  0.25000014953139815  1.0000
  Ti  Ti2       1.0  0.7500001617677993  0.7500001192383058  0.74999986502902  1.0000
  Ru  Ru1       1.0  3.1219768095774826e-08  0.9999999612050454  0.9999999780508858  1.0000
  O   O1        1.0  0.26035401837139094  0.2603540055055148  0.7396458386470272  1.0000
  O   O2        1.0  0.7396458799579201  0.739646012847187  0.26035408500409873  1.0000
  O   O3        1.0  0.7396458736131066  0.26035407769928953  0.2603539437626711  1.0000
  O   O4        1.0  0.26035394064076045  0.7396459939964749  0.7396460031736322  1.0000
  O   O5        1.0  0.2603539451256727  0.739646079179177  0.2603540578662221  1.0000
  O   O6        1.0  0.739645903442207  0.26035395129695166  0.7396460469431355  1.0000
