data_image0
_chemical_formula_structural       Ti2ReSe6
_chemical_formula_sum              "Ti2 Re1 Se6"
_cell_length_a       6.556906690924821
_cell_length_b       6.556906469803114
_cell_length_c       6.556906533468868
_cell_angle_alpha    59.99999984181577
_cell_angle_beta     59.99999863646094
_cell_angle_gamma    59.99999913448125

_space_group_name_H-M_alt    "P 1"
_space_group_IT_number       1

loop_
  _space_group_symop_operation_xyz
  'x, y, z'

loop_
  _atom_site_type_symbol
  _atom_site_label
  _atom_site_symmetry_multiplicity
  _atom_site_fract_x
  _atom_site_fract_y
  _atom_site_fract_z
  _atom_site_occupancy
  Ti  Ti1       1.0  0.24999984469130898  0.2499999073516312  0.2500001939127117  1.0000
  Ti  Ti2       1.0  0.7500001480160953  0.7499999723494682  0.7499998720498371  1.0000
  Re  Re1       1.0  0.9999999979886478  7.471479915378527e-08  0.9999999529725107  1.0000
  Se  Se1       1.0  0.2629742620758432  0.2629742848058062  0.737025677837248  1.0000
  Se  Se2       1.0  0.7370257681261507  0.7370257835501614  0.26297427047524313  1.0000
  Se  Se3       1.0  0.7370258001572392  0.26297425814527603  0.2629742328389525  1.0000
  Se  Se4       1.0  0.2629741832259974  0.7370258027392119  0.7370257502442049  1.0000
  Se  Se5       1.0  0.2629741573696205  0.7370256840576228  0.26297432976519286  1.0000
  Se  Se6       1.0  0.7370258255711323  0.26297424607596626  0.737025726540203  1.0000
