data_image0
_chemical_formula_structural       Ti2RuS6
_chemical_formula_sum              "Ti2 Ru1 S6"
_cell_length_a       5.970317076743952
_cell_length_b       5.970316945491557
_cell_length_c       5.970316965537813
_cell_angle_alpha    60.00000007822843
_cell_angle_beta     60.0000011505061
_cell_angle_gamma    59.99999969039367

_space_group_name_H-M_alt    "P 1"
_space_group_IT_number       1

loop_
  _space_group_symop_operation_xyz
  'x, y, z'

loop_
  _atom_site_type_symbol
  _atom_site_label
  _atom_site_symmetry_multiplicity
  _atom_site_fract_x
  _atom_site_fract_y
  _atom_site_fract_z
  _atom_site_occupancy
  Ti  Ti1       1.0  0.2499999984129128  0.24999987475283578  0.250000010722089  1.0000
  Ti  Ti2       1.0  0.7499999368945957  0.7500001822366005  0.7499999883685048  1.0000
  Ru  Ru1       1.0  0.9999999643085784  0.9999999446124688  8.406339399049359e-08  1.0000
  S   S1        1.0  0.2703660528521746  0.27036587823392955  0.7296340048588544  1.0000
  S   S2        1.0  0.7296338835882847  0.7296341869610669  0.27036590581483644  1.0000
  S   S3        1.0  0.7296341255733324  0.27036591215766714  0.27036601638008084  1.0000
  S   S4        1.0  0.2703659514508875  0.7296340155941958  0.7296340970675566  1.0000
  S   S5        1.0  0.27036598275475193  0.7296340709235039  0.27036592011126853  1.0000
  S   S6        1.0  0.7296340932135776  0.27036591221589046  0.7296339919754419  1.0000
