data_image0
_chemical_formula_structural       Ti2ReTe6
_chemical_formula_sum              "Ti2 Re1 Te6"
_cell_length_a       7.096937597430988
_cell_length_b       7.096937659315147
_cell_length_c       7.0969375715033545
_cell_angle_alpha    60.00000019562043
_cell_angle_beta     59.99999984991948
_cell_angle_gamma    59.9999999577644

_space_group_name_H-M_alt    "P 1"
_space_group_IT_number       1

loop_
  _space_group_symop_operation_xyz
  'x, y, z'

loop_
  _atom_site_type_symbol
  _atom_site_label
  _atom_site_symmetry_multiplicity
  _atom_site_fract_x
  _atom_site_fract_y
  _atom_site_fract_z
  _atom_site_occupancy
  Ti  Ti1       1.0  0.2499999970419459  0.2499999818059188  0.249999977850719  1.0000
  Ti  Ti2       1.0  0.7499999985701645  0.7499999816582353  0.7500000300706657  1.0000
  Re  Re1       1.0  0.9999999787497759  5.177211322235839e-09  5.735355289694199e-08  1.0000
  Te  Te1       1.0  0.2608820868339638  0.26088214104322344  0.7391179102571548  1.0000
  Te  Te2       1.0  0.7391179012012558  0.7391178500327245  0.2608821003283047  1.0000
  Te  Te3       1.0  0.73911784782502  0.2608821451493185  0.2608821166586726  1.0000
  Te  Te4       1.0  0.2608821506125182  0.7391178976987428  0.7391178388855767  1.0000
  Te  Te5       1.0  0.2608821578424438  0.7391178604013682  0.2608821324120256  1.0000
  Te  Te6       1.0  0.7391178789052967  0.2608821358517909  0.7391178343198662  1.0000
