data_image0
_chemical_formula_structural       Ti2ReO6
_chemical_formula_sum              "Ti2 Re1 O6"
_cell_length_a       5.0139358077530565
_cell_length_b       5.013935784467868
_cell_length_c       5.013935808103243
_cell_angle_alpha    59.99999986258689
_cell_angle_beta     59.999999965499526
_cell_angle_gamma    59.99999983980547

_space_group_name_H-M_alt    "P 1"
_space_group_IT_number       1

loop_
  _space_group_symop_operation_xyz
  'x, y, z'

loop_
  _atom_site_type_symbol
  _atom_site_label
  _atom_site_symmetry_multiplicity
  _atom_site_fract_x
  _atom_site_fract_y
  _atom_site_fract_z
  _atom_site_occupancy
  Ti  Ti1       1.0  0.24999998827959788  0.2500000113588169  0.24999999934689757  1.0000
  Ti  Ti2       1.0  0.749999996825116  0.7500000072069529  0.7500000054544865  1.0000
  Re  Re1       1.0  2.698111542423986e-09  1.954145288989613e-08  0.9999999928691001  1.0000
  O   O1        1.0  0.2624381739302795  0.2624381829273412  0.7375618159390555  1.0000
  O   O2        1.0  0.7375618041497569  0.737561801440886  0.26243818753458587  1.0000
  O   O3        1.0  0.7375618103071938  0.2624381974565794  0.26243817554321075  1.0000
  O   O4        1.0  0.2624381982464409  0.7375617991250558  0.7375618085813683  1.0000
  O   O5        1.0  0.2624381991276036  0.7375618038528605  0.26243819207804997  1.0000
  O   O6        1.0  0.7375618374809165  0.26243817074464026  0.737561814938889  1.0000
