data_image0
_chemical_formula_structural       Ti2RuSe6
_chemical_formula_sum              "Ti2 Ru1 Se6"
_cell_length_a       6.342918386265006
_cell_length_b       6.342918522924156
_cell_length_c       6.3429186272791
_cell_angle_alpha    60.00000160930426
_cell_angle_beta     60.00000022103013
_cell_angle_gamma    60.00000248613618

_space_group_name_H-M_alt    "P 1"
_space_group_IT_number       1

loop_
  _space_group_symop_operation_xyz
  'x, y, z'

loop_
  _atom_site_type_symbol
  _atom_site_label
  _atom_site_symmetry_multiplicity
  _atom_site_fract_x
  _atom_site_fract_y
  _atom_site_fract_z
  _atom_site_occupancy
  Ti  Ti1       1.0  0.2499989539417571  0.2499999136597594  0.2500004605508635  1.0000
  Ti  Ti2       1.0  0.7500006994162997  0.7499999919944292  0.7499993625745287  1.0000
  Ru  Ru1       1.0  3.89110999238098e-08  0.9999999324190118  0.9999999181647046  1.0000
  Se  Se1       1.0  0.27068336039961977  0.27068313850265924  0.7293167852083072  1.0000
  Se  Se2       1.0  0.7293167935081241  0.7293168984517537  0.2706834503634548  1.0000
  Se  Se3       1.0  0.7293169484859646  0.27068324322003695  0.2706832183852313  1.0000
  Se  Se4       1.0  0.2706827745257951  0.7293167647710844  0.7293169791007433  1.0000
  Se  Se5       1.0  0.270683109582445  0.7293167986153462  0.2706833955887156  1.0000
  Se  Se6       1.0  0.7293173197094956  0.27068330785093864  0.7293164389336286  1.0000
