data_image0
_chemical_formula_structural       Ti2SO6
_chemical_formula_sum              "Ti2 S1 O6"
_cell_length_a       4.873143987808802
_cell_length_b       4.873144184939058
_cell_length_c       4.8731442723960905
_cell_angle_alpha    59.999997699591674
_cell_angle_beta     59.99999802843361
_cell_angle_gamma    59.99999860901574

_space_group_name_H-M_alt    "P 1"
_space_group_IT_number       1

loop_
  _space_group_symop_operation_xyz
  'x, y, z'

loop_
  _atom_site_type_symbol
  _atom_site_label
  _atom_site_symmetry_multiplicity
  _atom_site_fract_x
  _atom_site_fract_y
  _atom_site_fract_z
  _atom_site_occupancy
  Ti  Ti1       1.0  0.25000002209378397  0.2500000363252763  0.2499999539064686  1.0000
  Ti  Ti2       1.0  0.750000009893432  0.7500000009059072  0.7500000116664134  1.0000
  S   S1        1.0  0.999999955554087  0.9999999698409519  8.039580804471211e-08  1.0000
  O   O1        1.0  0.2389027633369412  0.23890271871060184  0.7610972676436438  1.0000
  O   O2        1.0  0.7610972006775713  0.761097238096455  0.2389027762317806  1.0000
  O   O3        1.0  0.7610972396675822  0.238902750441228  0.23890276722702433  1.0000
  O   O4        1.0  0.23890278746152144  0.761097251604401  0.7610971588578588  1.0000
  O   O5        1.0  0.238902747254419  0.7610972591161334  0.2389027812462663  1.0000
  O   O6        1.0  0.7610972597933137  0.23890276052227266  0.7610971932803671  1.0000
