data_image0
_chemical_formula_structural       Ti2SiS6
_chemical_formula_sum              "Ti2 Si1 S6"
_cell_length_a       6.077840485786769
_cell_length_b       6.077840540827936
_cell_length_c       6.077840813187039
_cell_angle_alpha    59.99999721566942
_cell_angle_beta     59.999996405675255
_cell_angle_gamma    59.999998267524255

_space_group_name_H-M_alt    "P 1"
_space_group_IT_number       1

loop_
  _space_group_symop_operation_xyz
  'x, y, z'

loop_
  _atom_site_type_symbol
  _atom_site_label
  _atom_site_symmetry_multiplicity
  _atom_site_fract_x
  _atom_site_fract_y
  _atom_site_fract_z
  _atom_site_occupancy
  Ti  Ti1       1.0  0.25000016565174243  0.24999982030924028  0.24999997537066018  1.0000
  Ti  Ti2       1.0  0.7500001580762884  0.7500002951786126  0.7499997393028829  1.0000
  Si  Si1       1.0  0.9999999746499789  0.9999999677584194  4.853965524670679e-08  1.0000
  S   S1        1.0  0.254273819131504  0.2542737683164932  0.7457261750870376  1.0000
  S   S2        1.0  0.7457262051902529  0.7457261738728633  0.25427395527890095  1.0000
  S   S3        1.0  0.7457262623395828  0.2542737063842683  0.25427383978396734  1.0000
  S   S4        1.0  0.2542735595441297  0.7457261249746575  0.7457261658662973  1.0000
  S   S5        1.0  0.25427373530940667  0.7457263142515554  0.25427386871936614  1.0000
  S   S6        1.0  0.745726137922879  0.25427381332688787  0.7457262609499765  1.0000
