data_image0
_chemical_formula_structural       Ti2SI6
_chemical_formula_sum              "Ti2 S1 I6"
_cell_length_a       7.5489485318416865
_cell_length_b       7.5489485536994065
_cell_length_c       7.548948101568039
_cell_angle_alpha    60.00000335519621
_cell_angle_beta     60.000002343263965
_cell_angle_gamma    60.00000159690516

_space_group_name_H-M_alt    "P 1"
_space_group_IT_number       1

loop_
  _space_group_symop_operation_xyz
  'x, y, z'

loop_
  _atom_site_type_symbol
  _atom_site_label
  _atom_site_symmetry_multiplicity
  _atom_site_fract_x
  _atom_site_fract_y
  _atom_site_fract_z
  _atom_site_occupancy
  Ti  Ti1       1.0  0.24999990014266077  0.24999997908416374  0.2500000597694954  1.0000
  Ti  Ti2       1.0  0.7499999188240025  0.7499999015595915  0.7500001634641352  1.0000
  S   S1        1.0  0.9999999218198443  0.9999999821535509  6.523424426005558e-08  1.0000
  I   I1        1.0  0.26433480499815293  0.26433490335686205  0.735665125429667  1.0000
  I   I2        1.0  0.735665200563216  0.7356651654858146  0.26433474084710523  1.0000
  I   I3        1.0  0.7356652150027944  0.26433483566883664  0.26433479354247624  1.0000
  I   I4        1.0  0.26433492312635043  0.7356651796344915  0.7356651431691755  1.0000
  I   I5        1.0  0.26433492949235604  0.7356652136688143  0.26433473334016566  1.0000
  I   I6        1.0  0.7356651875614493  0.26433483732741303  0.7356651708936369  1.0000
