data_image0
_chemical_formula_structural       Ti2SnS6
_chemical_formula_sum              "Ti2 Sn1 S6"
_cell_length_a       6.375249611059893
_cell_length_b       6.3752496063550135
_cell_length_c       6.3752495078073705
_cell_angle_alpha    60.00000103604682
_cell_angle_beta     60.00000279096698
_cell_angle_gamma    60.00000064849149

_space_group_name_H-M_alt    "P 1"
_space_group_IT_number       1

loop_
  _space_group_symop_operation_xyz
  'x, y, z'

loop_
  _atom_site_type_symbol
  _atom_site_label
  _atom_site_symmetry_multiplicity
  _atom_site_fract_x
  _atom_site_fract_y
  _atom_site_fract_z
  _atom_site_occupancy
  Ti  Ti1       1.0  0.25000033482632394  0.24999987954806718  0.24999991313845737  1.0000
  Ti  Ti2       1.0  0.7500000111715145  0.7500000267050304  0.749999973021764  1.0000
  Sn  Sn1       1.0  0.9999999835891141  5.763279714830834e-09  0.9999999770896137  1.0000
  S   S1        1.0  0.2679527797421134  0.267952797626774  0.7320471670948508  1.0000
  S   S2        1.0  0.7320472360636096  0.7320471374427229  0.26795277407069373  1.0000
  S   S3        1.0  0.7320470989329104  0.267952848396878  0.2679526751406667  1.0000
  S   S4        1.0  0.26795280126199594  0.7320472922295912  0.7320471614462885  1.0000
  S   S5        1.0  0.26795270498888085  0.7320472722920034  0.26795286585196826  1.0000
  S   S6        1.0  0.7320470494323963  0.26795272425247607  0.7320474513359303  1.0000
