data_image0
_chemical_formula_structural       Ti2SiO6
_chemical_formula_sum              "Ti2 Si1 O6"
_cell_length_a       4.718879722949949
_cell_length_b       4.718879943264764
_cell_length_c       4.7188802853230305
_cell_angle_alpha    60.00000224637059
_cell_angle_beta     60.00000019801522
_cell_angle_gamma    60.00000245282162

_space_group_name_H-M_alt    "P 1"
_space_group_IT_number       1

loop_
  _space_group_symop_operation_xyz
  'x, y, z'

loop_
  _atom_site_type_symbol
  _atom_site_label
  _atom_site_symmetry_multiplicity
  _atom_site_fract_x
  _atom_site_fract_y
  _atom_site_fract_z
  _atom_site_occupancy
  Ti  Ti1       1.0  0.25000012631614127  0.2500002881744063  0.24999982786030095  1.0000
  Ti  Ti2       1.0  0.7500001954423459  0.7499998367391602  0.7499998349283148  1.0000
  Si  Si1       1.0  0.9999999448814619  0.999999981832101  6.843041797231038e-08  1.0000
  O   O1        1.0  0.2559683802473404  0.2559685630299042  0.7440315760140467  1.0000
  O   O2        1.0  0.7440315326195199  0.744031489212068  0.255968528875109  1.0000
  O   O3        1.0  0.7440314116230036  0.25596849980241987  0.2559685339628103  1.0000
  O   O4        1.0  0.2559685145177923  0.7440314979358483  0.7440314686307145  1.0000
  O   O5        1.0  0.2559685007692818  0.7440314487311022  0.25596850830750884  1.0000
  O   O6        1.0  0.7440314110374334  0.25596844519059664  0.7440315872676855  1.0000
