data_image0
_chemical_formula_structural       Ti2SCl6
_chemical_formula_sum              "Ti2 S1 Cl6"
_cell_length_a       6.617719773387585
_cell_length_b       6.617719780145577
_cell_length_c       6.617719654155372
_cell_angle_alpha    59.99999976109231
_cell_angle_beta     60.00000136583684
_cell_angle_gamma    59.999999313922686

_space_group_name_H-M_alt    "P 1"
_space_group_IT_number       1

loop_
  _space_group_symop_operation_xyz
  'x, y, z'

loop_
  _atom_site_type_symbol
  _atom_site_label
  _atom_site_symmetry_multiplicity
  _atom_site_fract_x
  _atom_site_fract_y
  _atom_site_fract_z
  _atom_site_occupancy
  Ti  Ti1       1.0  0.2500000897309855  0.2499999129350352  0.24999994754459295  1.0000
  Ti  Ti2       1.0  0.7499998733511405  0.7500000312165388  0.7500000091921504  1.0000
  S   S1        1.0  1.1878340222207056e-08  4.811833633375013e-08  0.9999999941791741  1.0000
  Cl  Cl1       1.0  0.25387482428354313  0.25387481880778434  0.7461250975487423  1.0000
  Cl  Cl2       1.0  0.7461250955459359  0.7461251975212952  0.2538748492588547  1.0000
  Cl  Cl3       1.0  0.7461252084115674  0.25387479706331284  0.25387483760350305  1.0000
  Cl  Cl4       1.0  0.253874934902366  0.7461251507896677  0.7461252115201676  1.0000
  Cl  Cl5       1.0  0.2538748417989144  0.7461252459030107  0.2538748024831253  1.0000
  Cl  Cl6       1.0  0.7461251198890849  0.2538748018880561  0.7461252466849152  1.0000
