data_image0
_chemical_formula_structural       Ti2SnO6
_chemical_formula_sum              "Ti2 Sn1 O6"
_cell_length_a       5.166711058114891
_cell_length_b       5.166711089379901
_cell_length_c       5.166710807901032
_cell_angle_alpha    60.00000038659819
_cell_angle_beta     60.000000494715394
_cell_angle_gamma    60.000001457683624

_space_group_name_H-M_alt    "P 1"
_space_group_IT_number       1

loop_
  _space_group_symop_operation_xyz
  'x, y, z'

loop_
  _atom_site_type_symbol
  _atom_site_label
  _atom_site_symmetry_multiplicity
  _atom_site_fract_x
  _atom_site_fract_y
  _atom_site_fract_z
  _atom_site_occupancy
  Ti  Ti1       1.0  0.24999981085150613  0.25000064098425234  0.24999973758344823  1.0000
  Ti  Ti2       1.0  0.7500000032955121  0.7500000028853889  0.7500003112808943  1.0000
  Sn  Sn1       1.0  0.9999999865906897  0.9999999999999999  6.704655331417205e-09  1.0000
  O   O1        1.0  0.267638919771865  0.26763879132965823  0.7323611145915232  1.0000
  O   O2        1.0  0.7323610965880609  0.7323611319221136  0.2676387599306232  1.0000
  O   O3        1.0  0.7323610650441208  0.26763908898088984  0.26763866086245347  1.0000
  O   O4        1.0  0.26763899267480046  0.7323606967845749  0.7323614378508774  1.0000
  O   O5        1.0  0.2676388016491179  0.7323610507542757  0.26763899445990336  1.0000
  O   O6        1.0  0.7323612879469875  0.2676386259703283  0.7323609744496083  1.0000
