data_image0
_chemical_formula_structural       Ti2SiTe6
_chemical_formula_sum              "Ti2 Si1 Te6"
_cell_length_a       7.044690321558098
_cell_length_b       7.044690280909228
_cell_length_c       7.044690282466803
_cell_angle_alpha    59.99999997138106
_cell_angle_beta     60.00000009087573
_cell_angle_gamma    59.999999879898866

_space_group_name_H-M_alt    "P 1"
_space_group_IT_number       1

loop_
  _space_group_symop_operation_xyz
  'x, y, z'

loop_
  _atom_site_type_symbol
  _atom_site_label
  _atom_site_symmetry_multiplicity
  _atom_site_fract_x
  _atom_site_fract_y
  _atom_site_fract_z
  _atom_site_occupancy
  Ti  Ti1       1.0  0.24999999126792122  0.25000009904258735  0.24999997006889035  1.0000
  Ti  Ti2       1.0  0.7499999148670553  0.7500000067922248  0.7499999627650354  1.0000
  Si  Si1       1.0  0.9999999829470428  0.99999997739903  0.9999999871782607  1.0000
  Te  Te1       1.0  0.2571287571953969  0.2571287005879756  0.7428712662781112  1.0000
  Te  Te2       1.0  0.742871307935943  0.7428712331317575  0.25712876254422806  1.0000
  Te  Te3       1.0  0.7428712357930839  0.25712873345334175  0.25712873817067294  1.0000
  Te  Te4       1.0  0.2571287878463643  0.7428712558995482  0.7428713006151397  1.0000
  Te  Te5       1.0  0.257128753234489  0.7428712332457711  0.25712871278168614  1.0000
  Te  Te6       1.0  0.7428712709844711  0.2571287543685827  0.7428712996129709  1.0000
