data_image0
_chemical_formula_structural       Ti2SBr6
_chemical_formula_sum              "Ti2 S1 Br6"
_cell_length_a       6.831445776572576
_cell_length_b       6.831445877698838
_cell_length_c       6.831445898060102
_cell_angle_alpha    59.99999694787256
_cell_angle_beta     59.99999745059875
_cell_angle_gamma    59.99999881289459

_space_group_name_H-M_alt    "P 1"
_space_group_IT_number       1

loop_
  _space_group_symop_operation_xyz
  'x, y, z'

loop_
  _atom_site_type_symbol
  _atom_site_label
  _atom_site_symmetry_multiplicity
  _atom_site_fract_x
  _atom_site_fract_y
  _atom_site_fract_z
  _atom_site_occupancy
  Ti  Ti1       1.0  0.25000000516996906  0.2500000812974095  0.2500000427708958  1.0000
  Ti  Ti2       1.0  0.7499999546661297  0.7499998889168825  0.7500000595604753  1.0000
  S   S1        1.0  0.9999999800067338  1.4342438465473694e-08  0.9999999998977759  1.0000
  Br  Br1       1.0  0.25868205860755983  0.258682077011187  0.7413179199388529  1.0000
  Br  Br2       1.0  0.7413179103624449  0.7413179165095695  0.25868209883666077  1.0000
  Br  Br3       1.0  0.7413179578208792  0.25868211662005103  0.2586820474854304  1.0000
  Br  Br4       1.0  0.2586820920771468  0.7413178876575358  0.7413178844607252  1.0000
  Br  Br5       1.0  0.25868213032073084  0.7413179181685629  0.2586820422032351  1.0000
  Br  Br6       1.0  0.7413179158891532  0.25868210224426713  0.741317890838464  1.0000
