data_image0
_chemical_formula_structural       Ti2SnTe6
_chemical_formula_sum              "Ti2 Sn1 Te6"
_cell_length_a       7.263404939960511
_cell_length_b       7.263404982820499
_cell_length_c       7.263405146899546
_cell_angle_alpha    59.99999927567061
_cell_angle_beta     59.99999974657825
_cell_angle_gamma    60.000000602588905

_space_group_name_H-M_alt    "P 1"
_space_group_IT_number       1

loop_
  _space_group_symop_operation_xyz
  'x, y, z'

loop_
  _atom_site_type_symbol
  _atom_site_label
  _atom_site_symmetry_multiplicity
  _atom_site_fract_x
  _atom_site_fract_y
  _atom_site_fract_z
  _atom_site_occupancy
  Ti  Ti1       1.0  0.24999996152793016  0.25000004051158103  0.24999997369195304  1.0000
  Ti  Ti2       1.0  0.7499999674465491  0.7499999444852578  0.7499999557783402  1.0000
  Sn  Sn1       1.0  8.703686138944448e-09  0.999999988196701  2.6331571571244482e-08  1.0000
  Te  Te1       1.0  0.2708476172996615  0.27084756933293536  0.7291523824093987  1.0000
  Te  Te2       1.0  0.7291524199542114  0.7291524342119459  0.2708475841510023  1.0000
  Te  Te3       1.0  0.7291524525442568  0.27084759820130566  0.270847613535284  1.0000
  Te  Te4       1.0  0.2708476403839925  0.7291523480132662  0.7291524130539668  1.0000
  Te  Te5       1.0  0.2708475659304413  0.7291523996729647  0.270847622133628  1.0000
  Te  Te6       1.0  0.729152365049782  0.2708476746917096  0.7291524241081132  1.0000
