data_image0
_chemical_formula_structural       Ti2TaSe6
_chemical_formula_sum              "Ti2 Ta1 Se6"
_cell_length_a       6.597701833751317
_cell_length_b       6.597701874843254
_cell_length_c       6.597701850868312
_cell_angle_alpha    59.999999719301734
_cell_angle_beta     59.99999992812652
_cell_angle_gamma    59.999999256939915

_space_group_name_H-M_alt    "P 1"
_space_group_IT_number       1

loop_
  _space_group_symop_operation_xyz
  'x, y, z'

loop_
  _atom_site_type_symbol
  _atom_site_label
  _atom_site_symmetry_multiplicity
  _atom_site_fract_x
  _atom_site_fract_y
  _atom_site_fract_z
  _atom_site_occupancy
  Ti  Ti1       1.0  0.24999998637988746  0.2500000497444322  0.24999998038309068  1.0000
  Ti  Ti2       1.0  0.7500000327190625  0.7500000230035065  0.7499999993037324  1.0000
  Ta  Ta1       1.0  0.9999999981618947  0.9999999740115141  6.33489929741567e-09  1.0000
  Se  Se1       1.0  0.2642694720413801  0.2642694673789041  0.7357305157443006  1.0000
  Se  Se2       1.0  0.7357305295044935  0.7357305162656544  0.26426946119061745  1.0000
  Se  Se3       1.0  0.7357305338245322  0.26426949074335665  0.26426945899647275  1.0000
  Se  Se4       1.0  0.26426945547025177  0.7357304929012017  0.7357305634716517  1.0000
  Se  Se5       1.0  0.26426945065034435  0.7357305229135306  0.26426947089489805  1.0000
  Se  Se6       1.0  0.7357305406948744  0.2642694755815913  0.7357305355443307  1.0000
