data_image0
_chemical_formula_structural       Ti2TeO6
_chemical_formula_sum              "Ti2 Te1 O6"
_cell_length_a       5.143990277311551
_cell_length_b       5.14399035088358
_cell_length_c       5.143990087732982
_cell_angle_alpha    60.000001159306365
_cell_angle_beta     60.00000112399105
_cell_angle_gamma    60.00000110506983

_space_group_name_H-M_alt    "P 1"
_space_group_IT_number       1

loop_
  _space_group_symop_operation_xyz
  'x, y, z'

loop_
  _atom_site_type_symbol
  _atom_site_label
  _atom_site_symmetry_multiplicity
  _atom_site_fract_x
  _atom_site_fract_y
  _atom_site_fract_z
  _atom_site_occupancy
  Ti  Ti1       1.0  0.24999994053392383  0.24999993362638784  0.2500001056938633  1.0000
  Ti  Ti2       1.0  0.7500001085688173  0.7499997413560723  0.7500000264541394  1.0000
  Te  Te1       1.0  2.6528575392562114e-08  2.1428313173084012e-08  5.181798427523245e-09  1.0000
  O   O1        1.0  0.25725485612360544  0.25725501721016203  0.7427450295044136  1.0000
  O   O2        1.0  0.7427449812598189  0.7427452053847492  0.2572549055367771  1.0000
  O   O3        1.0  0.74274512828911  0.2572550001008286  0.2572548479426038  1.0000
  O   O4        1.0  0.2572549120094838  0.7427450582103472  0.7427451261033562  1.0000
  O   O5        1.0  0.2572549017827235  0.7427450633498918  0.25725491241277715  1.0000
  O   O6        1.0  0.7427451274282553  0.2572549878185132  0.7427450124278901  1.0000
