data_image0
_chemical_formula_structural       Ti2TaS6
_chemical_formula_sum              "Ti2 Ta1 S6"
_cell_length_a       6.26781764811319
_cell_length_b       6.2678175466705035
_cell_length_c       6.267817670942263
_cell_angle_alpha    60.000001491803104
_cell_angle_beta     60.000001508820496
_cell_angle_gamma    60.000001440180114

_space_group_name_H-M_alt    "P 1"
_space_group_IT_number       1

loop_
  _space_group_symop_operation_xyz
  'x, y, z'

loop_
  _atom_site_type_symbol
  _atom_site_label
  _atom_site_symmetry_multiplicity
  _atom_site_fract_x
  _atom_site_fract_y
  _atom_site_fract_z
  _atom_site_occupancy
  Ti  Ti1       1.0  0.24999989885809348  0.24999996826940316  0.2500000790812911  1.0000
  Ti  Ti2       1.0  0.7500000871352764  0.7499999048082141  0.7500001233314116  1.0000
  Ta  Ta1       1.0  3.857589317359612e-08  5.862063580055742e-09  0.9999999554446992  1.0000
  S   S1        1.0  0.26673556232940643  0.26673555182236464  0.7332644440058098  1.0000
  S   S2        1.0  0.7332644217066511  0.7332645205654144  0.2667354842307906  1.0000
  S   S3        1.0  0.7332645437856115  0.26673556501509066  0.26673542133114453  1.0000
  S   S4        1.0  0.266735467233138  0.733264509326709  0.7332644477644541  1.0000
  S   S5        1.0  0.2667355022075436  0.7332644422199937  0.26673551810899354  1.0000
  S   S6        1.0  0.733264460746233  0.2667355441908521  0.7332645083298583  1.0000
