data_image0
_chemical_formula_structural       Ti2VF6
_chemical_formula_sum              "Ti2 V1 F6"
_cell_length_a       5.462973833717866
_cell_length_b       5.462972427050283
_cell_length_c       5.4629739893799965
_cell_angle_alpha    59.99999901074687
_cell_angle_beta     60.00000149356692
_cell_angle_gamma    59.999997580268634

_space_group_name_H-M_alt    "P 1"
_space_group_IT_number       1

loop_
  _space_group_symop_operation_xyz
  'x, y, z'

loop_
  _atom_site_type_symbol
  _atom_site_label
  _atom_site_symmetry_multiplicity
  _atom_site_fract_x
  _atom_site_fract_y
  _atom_site_fract_z
  _atom_site_occupancy
  Ti  Ti1       1.0  0.25000056242430096  0.24999933518820383  0.24999971582507427  1.0000
  Ti  Ti2       1.0  0.7499995628716737  0.7500004156093613  0.7499999107534439  1.0000
  V   V1        1.0  0.9999999685071578  6.277325949441853e-08  1.181736651764526e-08  1.0000
  F   F1        1.0  0.24949717627482992  0.24949682261189626  0.7505028070673926  1.0000
  F   F2        1.0  0.7505028068875971  0.750503177036814  0.24949698581291366  1.0000
  F   F3        1.0  0.7505030389035516  0.24949685081533546  0.24949698862475228  1.0000
  F   F4        1.0  0.24949714839257842  0.7505029739650622  0.7505032930116656  1.0000
  F   F5        1.0  0.24949671847104646  0.75050368150262  0.2494968936356011  1.0000
  F   F6        1.0  0.7505029935168388  0.24949653561063442  0.7505035045392233  1.0000
