data_image0
_chemical_formula_structural       Ti2VBr6
_chemical_formula_sum              "Ti2 V1 Br6"
_cell_length_a       6.807317647947491
_cell_length_b       6.807317606665295
_cell_length_c       6.807317724746815
_cell_angle_alpha    60.00000026492729
_cell_angle_beta     59.99999996049094
_cell_angle_gamma    60.00000032901287

_space_group_name_H-M_alt    "P 1"
_space_group_IT_number       1

loop_
  _space_group_symop_operation_xyz
  'x, y, z'

loop_
  _atom_site_type_symbol
  _atom_site_label
  _atom_site_symmetry_multiplicity
  _atom_site_fract_x
  _atom_site_fract_y
  _atom_site_fract_z
  _atom_site_occupancy
  Ti  Ti1       1.0  0.25000001175108716  0.24999999372710185  0.249999990313364  1.0000
  Ti  Ti2       1.0  0.7500000142807242  0.7500000135661729  0.7500000210562077  1.0000
  V   V1        1.0  0.9999999840310119  7.196637263147285e-09  2.6421286169261268e-08  1.0000
  Br  Br1       1.0  0.25459895117039855  0.25459900702934224  0.7454010209897197  1.0000
  Br  Br2       1.0  0.7454010264752783  0.7454009876698168  0.2545989606406743  1.0000
  Br  Br3       1.0  0.7454010039564676  0.2545989761080499  0.25459897559387584  1.0000
  Br  Br4       1.0  0.25459898335231285  0.7454010455784988  0.7454010112153897  1.0000
  Br  Br5       1.0  0.2545990031330189  0.7454009965517787  0.2545989808781309  1.0000
  Br  Br6       1.0  0.7454010230193421  0.2545989747583101  0.7454010161045964  1.0000
