data_image0
_chemical_formula_structural       Ti2VTe6
_chemical_formula_sum              "Ti2 V1 Te6"
_cell_length_a       6.975246537250931
_cell_length_b       6.975246454859516
_cell_length_c       6.975246448114599
_cell_angle_alpha    59.99999996378231
_cell_angle_beta     59.999999668243206
_cell_angle_gamma    59.999999768618025

_space_group_name_H-M_alt    "P 1"
_space_group_IT_number       1

loop_
  _space_group_symop_operation_xyz
  'x, y, z'

loop_
  _atom_site_type_symbol
  _atom_site_label
  _atom_site_symmetry_multiplicity
  _atom_site_fract_x
  _atom_site_fract_y
  _atom_site_fract_z
  _atom_site_occupancy
  Ti  Ti1       1.0  0.24999995365646896  0.2499999013269331  0.250000109080576  1.0000
  Ti  Ti2       1.0  0.7500001155491341  0.7499999831600881  0.7499998338469245  1.0000
  V   V1        1.0  5.670339178964344e-08  0.9999999490805069  0.9999999713025105  1.0000
  Te  Te1       1.0  0.26210744664383456  0.26210749025775865  0.7378925516944796  1.0000
  Te  Te2       1.0  0.7378925085352441  0.7378925575228096  0.262107530034596  1.0000
  Te  Te3       1.0  0.7378925607035145  0.2621074495806956  0.2621074700921864  1.0000
  Te  Te4       1.0  0.26210740223337403  0.7378926543868992  0.73789252661975  1.0000
  Te  Te5       1.0  0.2621073933900858  0.7378925427801007  0.2621074809440484  1.0000
  Te  Te6       1.0  0.737892564632212  0.26210747163942005  0.7378925271581928  1.0000
