data_image0
_chemical_formula_structural       Ti2VO6
_chemical_formula_sum              "Ti2 V1 O6"
_cell_length_a       4.868391262723134
_cell_length_b       4.8683906512908734
_cell_length_c       4.8683908559417395
_cell_angle_alpha    60.00000000582775
_cell_angle_beta     59.999999419400275
_cell_angle_gamma    59.99999854406053

_space_group_name_H-M_alt    "P 1"
_space_group_IT_number       1

loop_
  _space_group_symop_operation_xyz
  'x, y, z'

loop_
  _atom_site_type_symbol
  _atom_site_label
  _atom_site_symmetry_multiplicity
  _atom_site_fract_x
  _atom_site_fract_y
  _atom_site_fract_z
  _atom_site_occupancy
  Ti  Ti1       1.0  0.25000053459906973  0.24999961419379402  0.24999981141984584  1.0000
  Ti  Ti2       1.0  0.7500001150956619  0.7500005834512481  0.7499994950955123  1.0000
  V   V1        1.0  0.9999998987306083  0.9999999622643821  1.2701637716531187e-07  1.0000
  O   O1        1.0  0.26164828170219007  0.26164777626210656  0.7383520193507113  1.0000
  O   O2        1.0  0.7383517903961241  0.7383521547179013  0.2616480215135373  1.0000
  O   O3        1.0  0.7383519003998708  0.261648168307717  0.26164794180605916  1.0000
  O   O4        1.0  0.2616479995124817  0.7383517953764894  0.7383520702038694  1.0000
  O   O5        1.0  0.26164765342597857  0.7383518145097937  0.26164864132869436  1.0000
  O   O6        1.0  0.7383519106933707  0.26164809634455305  0.7383518833730269  1.0000
