data_image0
_chemical_formula_structural       Ti2VSe6
_chemical_formula_sum              "Ti2 V1 Se6"
_cell_length_a       6.274721148405873
_cell_length_b       6.274720804044795
_cell_length_c       6.274721042912891
_cell_angle_alpha    59.99999865612293
_cell_angle_beta     59.99999767548513
_cell_angle_gamma    59.99999865923886

_space_group_name_H-M_alt    "P 1"
_space_group_IT_number       1

loop_
  _space_group_symop_operation_xyz
  'x, y, z'

loop_
  _atom_site_type_symbol
  _atom_site_label
  _atom_site_symmetry_multiplicity
  _atom_site_fract_x
  _atom_site_fract_y
  _atom_site_fract_z
  _atom_site_occupancy
  Ti  Ti1       1.0  0.24999946296548003  0.2499999990913997  0.2500003476028972  1.0000
  Ti  Ti2       1.0  0.7500000641930614  0.749999575669955  0.7499999490094373  1.0000
  V   V1        1.0  6.085876431665957e-08  0.9999999609625714  1.5164635817667703e-07  1.0000
  Se  Se1       1.0  0.27246015394333123  0.27246017043427306  0.7275398200853002  1.0000
  Se  Se2       1.0  0.7275399772162299  0.7275398337388248  0.2724601016596143  1.0000
  Se  Se3       1.0  0.7275400470993606  0.27246019092543794  0.27246012684926874  1.0000
  Se  Se4       1.0  0.2724602861294956  0.7275400572316031  0.727539562306844  1.0000
  Se  Se5       1.0  0.2724601213976825  0.7275398126340991  0.27246019124674964  1.0000
  Se  Se6       1.0  0.7275398275746289  0.2724603847742795  0.7275397297552423  1.0000
