data_image0
_chemical_formula_structural       Ti2VI6
_chemical_formula_sum              "Ti2 V1 I6"
_cell_length_a       7.461360736989504
_cell_length_b       7.461360713498209
_cell_length_c       7.461360713585557
_cell_angle_alpha    60.00000008426506
_cell_angle_beta     59.999999963753275
_cell_angle_gamma    60.00000045939634

_space_group_name_H-M_alt    "P 1"
_space_group_IT_number       1

loop_
  _space_group_symop_operation_xyz
  'x, y, z'

loop_
  _atom_site_type_symbol
  _atom_site_label
  _atom_site_symmetry_multiplicity
  _atom_site_fract_x
  _atom_site_fract_y
  _atom_site_fract_z
  _atom_site_occupancy
  Ti  Ti1       1.0  0.24999997441768207  0.25000008554768777  0.24999990065019007  1.0000
  Ti  Ti2       1.0  0.7499999531157446  0.7499999349189127  0.7500000944851086  1.0000
  V   V1        1.0  0.9999999936380596  0.9999999819440528  5.3756325298318025e-08  1.0000
  I   I1        1.0  0.25237592726345187  0.25237593052297747  0.7476240852632734  1.0000
  I   I2        1.0  0.7476240877789844  0.7476240456244801  0.25237594590733076  1.0000
  I   I3        1.0  0.7476241391994055  0.25237594103048755  0.25237589381903824  1.0000
  I   I4        1.0  0.2523759785461488  0.7476240055708752  0.7476240552049583  1.0000
  I   I5        1.0  0.2523759391114959  0.7476240934718877  0.2523759024002998  1.0000
  I   I6        1.0  0.7476240068667257  0.2523759877283537  0.7476240652079241  1.0000
