data_image0
_chemical_formula_structural       Ti2VS6
_chemical_formula_sum              "Ti2 V1 S6"
_cell_length_a       5.908820150899829
_cell_length_b       5.908820441103603
_cell_length_c       5.908820964161605
_cell_angle_alpha    59.999997546135674
_cell_angle_beta     59.99999558432108
_cell_angle_gamma    59.99999796470849

_space_group_name_H-M_alt    "P 1"
_space_group_IT_number       1

loop_
  _space_group_symop_operation_xyz
  'x, y, z'

loop_
  _atom_site_type_symbol
  _atom_site_label
  _atom_site_symmetry_multiplicity
  _atom_site_fract_x
  _atom_site_fract_y
  _atom_site_fract_z
  _atom_site_occupancy
  Ti  Ti1       1.0  0.24999945263910198  0.25000030287429725  0.24999996734738708  1.0000
  Ti  Ti2       1.0  0.7499997980062564  0.7499995841419699  0.7500005838103909  1.0000
  V   V1        1.0  0.9999998258189349  4.7673023687856534e-08  8.525502579683495e-08  1.0000
  S   S1        1.0  0.26993491103907646  0.2699348786754049  0.7300649719878503  1.0000
  S   S2        1.0  0.7300653562193716  0.7300652591423998  0.26993456129121984  1.0000
  S   S3        1.0  0.7300654810624252  0.2699347423598508  0.26993476663203964  1.0000
  S   S4        1.0  0.2699348887493013  0.730064970546238  0.7300652375327038  1.0000
  S   S5        1.0  0.269935098722704  0.7300652356937869  0.26993464461194105  1.0000
  S   S6        1.0  0.7300652318388671  0.2699349643062214  0.7300651982491673  1.0000
