data_image0
_chemical_formula_structural       Ti2WS6
_chemical_formula_sum              "Ti2 W1 S6"
_cell_length_a       6.231216834424586
_cell_length_b       6.231217222731916
_cell_length_c       6.231217255220731
_cell_angle_alpha    60.000001811918764
_cell_angle_beta     60.00000458271195
_cell_angle_gamma    60.00000310132169

_space_group_name_H-M_alt    "P 1"
_space_group_IT_number       1

loop_
  _space_group_symop_operation_xyz
  'x, y, z'

loop_
  _atom_site_type_symbol
  _atom_site_label
  _atom_site_symmetry_multiplicity
  _atom_site_fract_x
  _atom_site_fract_y
  _atom_site_fract_z
  _atom_site_occupancy
  Ti  Ti1       1.0  0.2500003248022314  0.24999994251252738  0.24999938746422684  1.0000
  Ti  Ti2       1.0  0.7499997954658324  0.7499999120540101  0.7500000977766265  1.0000
  W   W1        1.0  0.9999999988340401  3.2037626355761043e-07  0.999999891749185  1.0000
  S   S1        1.0  0.26396135513041663  0.263960668805963  0.7360384719497541  1.0000
  S   S2        1.0  0.7360387082924507  0.7360390894511464  0.2639607319929055  1.0000
  S   S3        1.0  0.7360396823464712  0.2639612141989712  0.26396091849791975  1.0000
  S   S4        1.0  0.263961761194812  0.7360387288150029  0.7360391174589873  1.0000
  S   S5        1.0  0.26396025749568863  0.7360390232144997  0.26396162732950723  1.0000
  S   S6        1.0  0.7360381462266005  0.26396108883233615  0.7360398103190314  1.0000
