data_image0
_chemical_formula_structural       Ti2WTe6
_chemical_formula_sum              "Ti2 W1 Te6"
_cell_length_a       7.1065222765386125
_cell_length_b       7.106522277591071
_cell_length_c       7.106522301502941
_cell_angle_alpha    60.000000148771115
_cell_angle_beta     59.99999947760903
_cell_angle_gamma    60.00000108129415

_space_group_name_H-M_alt    "P 1"
_space_group_IT_number       1

loop_
  _space_group_symop_operation_xyz
  'x, y, z'

loop_
  _atom_site_type_symbol
  _atom_site_label
  _atom_site_symmetry_multiplicity
  _atom_site_fract_x
  _atom_site_fract_y
  _atom_site_fract_z
  _atom_site_occupancy
  Ti  Ti1       1.0  0.24999995560852503  0.2499999286612349  0.2500000898479568  1.0000
  Ti  Ti2       1.0  0.7500000678276934  0.7499999531544369  0.7499999982136465  1.0000
  W   W1        1.0  3.596113553078717e-09  0.9999998965954248  4.849707260565845e-08  1.0000
  Te  Te1       1.0  0.2627985349962637  0.26279859626345564  0.7372014169825697  1.0000
  Te  Te2       1.0  0.737201464605013  0.7372015130422813  0.26279852844388923  1.0000
  Te  Te3       1.0  0.7372014264157112  0.26279859245315307  0.2627985532946438  1.0000
  Te  Te4       1.0  0.2627985545744822  0.7372014703205246  0.737201374045697  1.0000
  Te  Te5       1.0  0.2627985920368683  0.7372014320020944  0.26279860094171975  1.0000
  Te  Te6       1.0  0.7372013972746823  0.2627986204311259  0.7372013907302829  1.0000
