data_image0
_chemical_formula_structural       Ti2WO6
_chemical_formula_sum              "Ti2 W1 O6"
_cell_length_a       5.177339654883485
_cell_length_b       5.177339216825317
_cell_length_c       5.1773393467337385
_cell_angle_alpha    59.9999998143376
_cell_angle_beta     60.00000121335073
_cell_angle_gamma    60.00000050093476

_space_group_name_H-M_alt    "P 1"
_space_group_IT_number       1

loop_
  _space_group_symop_operation_xyz
  'x, y, z'

loop_
  _atom_site_type_symbol
  _atom_site_label
  _atom_site_symmetry_multiplicity
  _atom_site_fract_x
  _atom_site_fract_y
  _atom_site_fract_z
  _atom_site_occupancy
  Ti  Ti1       1.0  0.25000012783393194  0.24999996654699103  0.25000002148300077  1.0000
  Ti  Ti2       1.0  0.7499996364059895  0.7500007157686365  0.7499999913032017  1.0000
  W   W1        1.0  4.07793599746439e-09  0.9999999810753002  0.9999999958344177  1.0000
  O   O1        1.0  0.25905637122965186  0.2590560509864667  0.7409437719217489  1.0000
  O   O2        1.0  0.7409437490852109  0.740943696922113  0.2590562905252416  1.0000
  O   O3        1.0  0.7409437174106627  0.25905609380619454  0.2590563415172557  1.0000
  O   O4        1.0  0.2590562260110727  0.7409437298011801  0.7409437135820818  1.0000
  O   O5        1.0  0.2590563682836067  0.7409437154430433  0.2590561195803294  1.0000
  O   O6        1.0  0.7409437936183723  0.25905603483112294  0.7409437586448115  1.0000
