data_image0
_chemical_formula_structural       Ti2ZrTe6
_chemical_formula_sum              "Ti2 Zr1 Te6"
_cell_length_a       7.238648984699707
_cell_length_b       7.238649002736885
_cell_length_c       7.238649068970379
_cell_angle_alpha    59.99999968998506
_cell_angle_beta     59.99999921533398
_cell_angle_gamma    60.000000832296

_space_group_name_H-M_alt    "P 1"
_space_group_IT_number       1

loop_
  _space_group_symop_operation_xyz
  'x, y, z'

loop_
  _atom_site_type_symbol
  _atom_site_label
  _atom_site_symmetry_multiplicity
  _atom_site_fract_x
  _atom_site_fract_y
  _atom_site_fract_z
  _atom_site_occupancy
  Ti  Ti1       1.0  0.24999993872798504  0.25000001678346057  0.25000001394851634  1.0000
  Ti  Ti2       1.0  0.750000016550088  0.7499999995918158  0.7500000098674354  1.0000
  Zr  Zr1       1.0  3.964490384830042e-09  0.9999999593931452  0.9999999824028779  1.0000
  Te  Te1       1.0  0.2679199352515732  0.2679199428422021  0.732080065797361  1.0000
  Te  Te2       1.0  0.7320801255024315  0.7320800633813618  0.26791987720112315  1.0000
  Te  Te3       1.0  0.7320800353388632  0.26791997186472827  0.2679199592153959  1.0000
  Te  Te4       1.0  0.2679199114794487  0.7320800698898322  0.732080093440572  1.0000
  Te  Te5       1.0  0.2679199564621438  0.732080050616154  0.2679199371688735  1.0000
  Te  Te6       1.0  0.7320800799134238  0.26791992346031657  0.732080057577421  1.0000
