data_image0
_chemical_formula_structural       Ti2ZrS6
_chemical_formula_sum              "Ti2 Zr1 S6"
_cell_length_a       6.280970155638936
_cell_length_b       6.2809702796610996
_cell_length_c       6.280970251663083
_cell_angle_alpha    60.00000031930983
_cell_angle_beta     59.99999965339706
_cell_angle_gamma    59.999998960429416

_space_group_name_H-M_alt    "P 1"
_space_group_IT_number       1

loop_
  _space_group_symop_operation_xyz
  'x, y, z'

loop_
  _atom_site_type_symbol
  _atom_site_label
  _atom_site_symmetry_multiplicity
  _atom_site_fract_x
  _atom_site_fract_y
  _atom_site_fract_z
  _atom_site_occupancy
  Ti  Ti1       1.0  0.25000013013685396  0.2500000373023377  0.2499998491086493  1.0000
  Ti  Ti2       1.0  0.7499999676716694  0.7499999461630203  0.750000124963096  1.0000
  Zr  Zr1       1.0  0.9999999971961909  0.9999999863504941  0.9999999827528862  1.0000
  S   S1        1.0  0.2718382762031215  0.2718382935428952  0.728161696436848  1.0000
  S   S2        1.0  0.7281616811055265  0.7281617308709829  0.27183825258137145  1.0000
  S   S3        1.0  0.7281617099636195  0.2718383129403858  0.2718382338308796  1.0000
  S   S4        1.0  0.27183824552575137  0.7281616783246924  0.7281618281980208  1.0000
  S   S5        1.0  0.2718382589064658  0.7281617518073934  0.2718382622594049  1.0000
  S   S6        1.0  0.728161729228232  0.27183826285683726  0.728161765378813  1.0000
