data_image0
_chemical_formula_structural       Ti2ZnI6
_chemical_formula_sum              "Ti2 Zn1 I6"
_cell_length_a       7.477940286035457
_cell_length_b       7.477940229938302
_cell_length_c       7.4779402424185255
_cell_angle_alpha    60.00000017683357
_cell_angle_beta     59.99999999550993
_cell_angle_gamma    59.99999982194473

_space_group_name_H-M_alt    "P 1"
_space_group_IT_number       1

loop_
  _space_group_symop_operation_xyz
  'x, y, z'

loop_
  _atom_site_type_symbol
  _atom_site_label
  _atom_site_symmetry_multiplicity
  _atom_site_fract_x
  _atom_site_fract_y
  _atom_site_fract_z
  _atom_site_occupancy
  Ti  Ti1       1.0  0.24999998334513343  0.25000006051795204  0.24999998064666315  1.0000
  Ti  Ti2       1.0  0.750000017482704  0.749999937520098  0.7500000917474814  1.0000
  Zn  Zn1       1.0  1.1807203226068833e-08  1.6378103660522085e-09  0.999999971881227  1.0000
  I   I1        1.0  0.255929597391095  0.25592965177514077  0.7440704032429942  1.0000
  I   I2        1.0  0.744070392986346  0.7440703544519615  0.25592958870855753  1.0000
  I   I3        1.0  0.7440703685872349  0.2559296305134732  0.2559296230198339  1.0000
  I   I4        1.0  0.25592961651817403  0.7440703822648707  0.7440703495703801  1.0000
  I   I5        1.0  0.255929634400769  0.7440703593251078  0.25592963264071134  1.0000
  I   I6        1.0  0.7440703786089437  0.25592962069702696  0.7440703597599216  1.0000
