data_image0
_chemical_formula_structural       Ti2ZrO6
_chemical_formula_sum              "Ti2 Zr1 O6"
_cell_length_a       5.196267711946038
_cell_length_b       5.196267700238026
_cell_length_c       5.1962676616889505
_cell_angle_alpha    59.99999935662924
_cell_angle_beta     59.99999863627886
_cell_angle_gamma    59.99999923054246

_space_group_name_H-M_alt    "P 1"
_space_group_IT_number       1

loop_
  _space_group_symop_operation_xyz
  'x, y, z'

loop_
  _atom_site_type_symbol
  _atom_site_label
  _atom_site_symmetry_multiplicity
  _atom_site_fract_x
  _atom_site_fract_y
  _atom_site_fract_z
  _atom_site_occupancy
  Ti  Ti1       1.0  0.250000022643326  0.2499999915525046  0.25000006293314275  1.0000
  Ti  Ti2       1.0  0.7500000607282354  0.7499997696010947  0.7500004334895022  1.0000
  Zr  Zr1       1.0  2.1705666114859943e-08  0.999999988215148  8.356467074491922e-08  1.0000
  O   O1        1.0  0.2693069672809212  0.26930716632103235  0.7306928352643494  1.0000
  O   O2        1.0  0.7306928907690463  0.7306929908035851  0.2693069773270782  1.0000
  O   O3        1.0  0.7306929861014362  0.26930714972056025  0.26930692175023535  1.0000
  O   O4        1.0  0.2693069305338118  0.7306929649785909  0.7306929193259906  1.0000
  O   O5        1.0  0.2693072005229264  0.7306929784766864  0.2693068721417946  1.0000
  O   O6        1.0  0.730692900756857  0.2693070089460668  0.7306929113834879  1.0000
