data_image0
_chemical_formula_structural       Ti2ZrSe6
_chemical_formula_sum              "Ti2 Zr1 Se6"
_cell_length_a       6.59510777529243
_cell_length_b       6.595107684515553
_cell_length_c       6.595107687494437
_cell_angle_alpha    59.999999874688406
_cell_angle_beta     59.999999751451746
_cell_angle_gamma    59.999999638790875

_space_group_name_H-M_alt    "P 1"
_space_group_IT_number       1

loop_
  _space_group_symop_operation_xyz
  'x, y, z'

loop_
  _atom_site_type_symbol
  _atom_site_label
  _atom_site_symmetry_multiplicity
  _atom_site_fract_x
  _atom_site_fract_y
  _atom_site_fract_z
  _atom_site_occupancy
  Ti  Ti1       1.0  0.25000001374146413  0.2500000479738359  0.24999997919420322  1.0000
  Ti  Ti2       1.0  0.7499999802848197  0.7499999117901812  0.7499999522020939  1.0000
  Zr  Zr1       1.0  0.9999999681844092  0.9999999851435951  3.5466201770854605e-08  1.0000
  Se  Se1       1.0  0.27075107690913364  0.2707511128567882  0.7292488765684737  1.0000
  Se  Se2       1.0  0.7292489200878053  0.729248874762988  0.2707511303911445  1.0000
  Se  Se3       1.0  0.7292489081521998  0.27075112167890386  0.2707511015686348  1.0000
  Se  Se4       1.0  0.2707511202172809  0.7292489346517449  0.7292489038700908  1.0000
  Se  Se5       1.0  0.2707511399136998  0.7292488746061928  0.27075108090347977  1.0000
  Se  Se6       1.0  0.7292488758114911  0.2707511408693426  0.7292489346059176  1.0000
