data_image0
_chemical_formula_structural       Ti2ZnF6
_chemical_formula_sum              "Ti2 Zn1 F6"
_cell_length_a       5.278404590825137
_cell_length_b       5.2784043726101
_cell_length_c       5.278404449034197
_cell_angle_alpha    60.0000010447982
_cell_angle_beta     60.00000222609051
_cell_angle_gamma    60.000000602577174

_space_group_name_H-M_alt    "P 1"
_space_group_IT_number       1

loop_
  _space_group_symop_operation_xyz
  'x, y, z'

loop_
  _atom_site_type_symbol
  _atom_site_label
  _atom_site_symmetry_multiplicity
  _atom_site_fract_x
  _atom_site_fract_y
  _atom_site_fract_z
  _atom_site_occupancy
  Ti  Ti1       1.0  0.25000010049366334  0.2499998989770989  0.2499999972367469  1.0000
  Ti  Ti2       1.0  0.7500000406870141  0.7500000658580008  0.7499999205932713  1.0000
  Zn  Zn1       1.0  3.705639540941571e-08  6.9608825569760674e-09  7.271695607644834e-08  1.0000
  F   F1        1.0  0.25716810170192583  0.25716805123254843  0.7428317701376829  1.0000
  F   F2        1.0  0.7428318351907921  0.7428320342578244  0.2571681232007615  1.0000
  F   F3        1.0  0.7428319129811221  0.25716809915479333  0.25716803663413584  1.0000
  F   F4        1.0  0.2571679298678327  0.7428319468905871  0.7428320617480532  1.0000
  F   F5        1.0  0.2571680828072937  0.7428319409559936  0.2571680352931229  1.0000
  F   F6        1.0  0.7428319981179624  0.25716785681795673  0.7428320378744399  1.0000
