data_image0
_chemical_formula_structural       Ti2ZnBr6
_chemical_formula_sum              "Ti2 Zn1 Br6"
_cell_length_a       6.802525224344714
_cell_length_b       6.802525282951935
_cell_length_c       6.802525512310207
_cell_angle_alpha    59.99999902206314
_cell_angle_beta     59.99999798217137
_cell_angle_gamma    59.999998747828926

_space_group_name_H-M_alt    "P 1"
_space_group_IT_number       1

loop_
  _space_group_symop_operation_xyz
  'x, y, z'

loop_
  _atom_site_type_symbol
  _atom_site_label
  _atom_site_symmetry_multiplicity
  _atom_site_fract_x
  _atom_site_fract_y
  _atom_site_fract_z
  _atom_site_occupancy
  Ti  Ti1       1.0  0.25000005864252633  0.24999985891826218  0.25000010702965  1.0000
  Ti  Ti2       1.0  0.7500000160514966  0.7499999494431342  0.7499999544853378  1.0000
  Zn  Zn1       1.0  0.9999999847228718  7.001188849930972e-17  2.8835285518011433e-10  1.0000
  Br  Br1       1.0  0.25648928517123776  0.25648938579801234  0.7435106632451466  1.0000
  Br  Br2       1.0  0.7435106541848986  0.7435106656210031  0.2564893620504828  1.0000
  Br  Br3       1.0  0.7435106582132474  0.25648936730347077  0.25648932475257713  1.0000
  Br  Br4       1.0  0.2564893116794794  0.7435107147228002  0.7435106420403262  1.0000
  Br  Br5       1.0  0.2564893670713533  0.743510700224835  0.2564892948810107  1.0000
  Br  Br6       1.0  0.7435106570547505  0.25648935659546035  0.7435106544581074  1.0000
