data_image0
_chemical_formula_structural       Ti2ZnCl6
_chemical_formula_sum              "Ti2 Zn1 Cl6"
_cell_length_a       6.459994030731608
_cell_length_b       6.459993887470548
_cell_length_c       6.459993896808221
_cell_angle_alpha    59.99999915134095
_cell_angle_beta     59.999999688278514
_cell_angle_gamma    59.99999945848508

_space_group_name_H-M_alt    "P 1"
_space_group_IT_number       1

loop_
  _space_group_symop_operation_xyz
  'x, y, z'

loop_
  _atom_site_type_symbol
  _atom_site_label
  _atom_site_symmetry_multiplicity
  _atom_site_fract_x
  _atom_site_fract_y
  _atom_site_fract_z
  _atom_site_occupancy
  Ti  Ti1       1.0  0.2499999197269877  0.25000009372220533  0.24999996071290162  1.0000
  Ti  Ti2       1.0  0.7499999809040785  0.7499999645527003  0.7500001447545871  1.0000
  Zn  Zn1       1.0  2.3996024760947046e-08  0.9999999601862744  0.9999999831410252  1.0000
  Cl  Cl1       1.0  0.25564283247891006  0.2556428790796915  0.7443571350483834  1.0000
  Cl  Cl2       1.0  0.7443572202694213  0.744357044586904  0.2556428285375668  1.0000
  Cl  Cl3       1.0  0.7443571458998466  0.25564286308886375  0.25564285395583775  1.0000
  Cl  Cl4       1.0  0.2556428396094416  0.7443571496846418  0.7443571141760698  1.0000
  Cl  Cl5       1.0  0.25564289357881215  0.7443571901971789  0.2556428095486078  1.0000
  Cl  Cl6       1.0  0.7443571491107137  0.25564285480648563  0.7443571634137511  1.0000
