data_image0
_chemical_formula_structural       Tl2CrI6
_chemical_formula_sum              "Tl2 Cr1 I6"
_cell_length_a       7.901985027001833
_cell_length_b       7.901985311541643
_cell_length_c       7.901985148125677
_cell_angle_alpha    60.00000310619784
_cell_angle_beta     59.99999886137409
_cell_angle_gamma    60.00000289916897

_space_group_name_H-M_alt    "P 1"
_space_group_IT_number       1

loop_
  _space_group_symop_operation_xyz
  'x, y, z'

loop_
  _atom_site_type_symbol
  _atom_site_label
  _atom_site_symmetry_multiplicity
  _atom_site_fract_x
  _atom_site_fract_y
  _atom_site_fract_z
  _atom_site_occupancy
  Tl  Tl1       1.0  0.25000009328332096  0.2499998952274392  0.2500000187374734  1.0000
  Tl  Tl2       1.0  0.7499999382878273  0.7500000747123305  0.7499999717342608  1.0000
  Cr  Cr1       1.0  9.703710589081118e-08  0.999999866706831  0.9999994714299624  1.0000
  I   I1        1.0  0.24023554768806293  0.24023545652761188  0.7597644456979873  1.0000
  I   I2        1.0  0.7597644585551165  0.7597644622647829  0.24023552606370255  1.0000
  I   I3        1.0  0.7597643061239097  0.24023569610046036  0.24023569111516907  1.0000
  I   I4        1.0  0.24023534642368696  0.7597646349707684  0.7597647082021313  1.0000
  I   I5        1.0  0.24023562854508482  0.7597643947274697  0.24023562804005685  1.0000
  I   I6        1.0  0.7597645880488446  0.24023550236605049  0.7597645391962892  1.0000
