data_image0
_chemical_formula_structural       Tl2CrBr6
_chemical_formula_sum              "Tl2 Cr1 Br6"
_cell_length_a       7.340739886260695
_cell_length_b       7.34074024646925
_cell_length_c       7.34073997493497
_cell_angle_alpha    59.99999955009532
_cell_angle_beta     60.000000038591864
_cell_angle_gamma    59.99999992815129

_space_group_name_H-M_alt    "P 1"
_space_group_IT_number       1

loop_
  _space_group_symop_operation_xyz
  'x, y, z'

loop_
  _atom_site_type_symbol
  _atom_site_label
  _atom_site_symmetry_multiplicity
  _atom_site_fract_x
  _atom_site_fract_y
  _atom_site_fract_z
  _atom_site_occupancy
  Tl  Tl1       1.0  0.24999997183524647  0.2500000268611411  0.24999998912695853  1.0000
  Tl  Tl2       1.0  0.750000008839119  0.7499999704676039  0.7500000166399117  1.0000
  Cr  Cr1       1.0  4.0483659377776715e-08  7.674738920423988e-08  0.9999998800827531  1.0000
  Br  Br1       1.0  0.23864878496403177  0.23864875924313708  0.7613512345319253  1.0000
  Br  Br2       1.0  0.7613512201805158  0.761351164675063  0.23864876301087573  1.0000
  Br  Br3       1.0  0.7613511995963781  0.23864886914142847  0.23864879733817707  1.0000
  Br  Br4       1.0  0.23864875772008692  0.7613511982610177  0.7613512572705974  1.0000
  Br  Br5       1.0  0.23864880800189403  0.7613511773429404  0.2386487952739456  1.0000
  Br  Br6       1.0  0.7613512329400475  0.23864876659631581  0.7613512492839568  1.0000
