data_image0
_chemical_formula_structural       Tl2CoBr6
_chemical_formula_sum              "Tl2 Co1 Br6"
_cell_length_a       7.285172768645838
_cell_length_b       7.285173441665172
_cell_length_c       7.285173384875216
_cell_angle_alpha    60.00000194094491
_cell_angle_beta     59.999997418277836
_cell_angle_gamma    60.00000085526081

_space_group_name_H-M_alt    "P 1"
_space_group_IT_number       1

loop_
  _space_group_symop_operation_xyz
  'x, y, z'

loop_
  _atom_site_type_symbol
  _atom_site_label
  _atom_site_symmetry_multiplicity
  _atom_site_fract_x
  _atom_site_fract_y
  _atom_site_fract_z
  _atom_site_occupancy
  Tl  Tl1       1.0  0.250000008011  0.25000003434722246  0.24999996560328364  1.0000
  Tl  Tl2       1.0  0.7499999867154856  0.7499999819990765  0.7500000254053352  1.0000
  Co  Co1       1.0  0.999999990105407  2.0173776830692868e-08  6.139259764221126e-07  1.0000
  Br  Br1       1.0  0.2417748037619544  0.24177481614066385  0.7582252120673367  1.0000
  Br  Br2       1.0  0.7582251505566666  0.7582251026991023  0.24177480809160262  1.0000
  Br  Br3       1.0  0.7582253296042404  0.24177461603532088  0.24177471200198342  1.0000
  Br  Br4       1.0  0.24177489631274987  0.7582251346897255  0.7582250216918208  1.0000
  Br  Br5       1.0  0.24177472737001643  0.7582253908794926  0.24177462455836868  1.0000
  Br  Br6       1.0  0.7582250975167674  0.2417748877257538  0.7582250429651431  1.0000
