data_image0
_chemical_formula_structural       Tl2CoCl6
_chemical_formula_sum              "Tl2 Co1 Cl6"
_cell_length_a       7.047668242180245
_cell_length_b       7.0476684928966185
_cell_length_c       7.04766821125213
_cell_angle_alpha    59.99999998161255
_cell_angle_beta     59.99999660250325
_cell_angle_gamma    60.00000062354578

_space_group_name_H-M_alt    "P 1"
_space_group_IT_number       1

loop_
  _space_group_symop_operation_xyz
  'x, y, z'

loop_
  _atom_site_type_symbol
  _atom_site_label
  _atom_site_symmetry_multiplicity
  _atom_site_fract_x
  _atom_site_fract_y
  _atom_site_fract_z
  _atom_site_occupancy
  Tl  Tl1       1.0  0.24999995050331078  0.250000026448178  0.2500000412295878  1.0000
  Tl  Tl2       1.0  0.7500000000775912  0.749999992454462  0.7500000190666979  1.0000
  Co  Co1       1.0  0.9999999292329358  4.5182837070335623e-08  2.02925923782028e-07  1.0000
  Cl  Cl1       1.0  0.2272750982556068  0.22727520931961534  0.7727249242009632  1.0000
  Cl  Cl2       1.0  0.7727249186569877  0.7727247678757903  0.22727514364781845  1.0000
  Cl  Cl3       1.0  0.7727248739141032  0.22727528310017817  0.2272750775202577  1.0000
  Cl  Cl4       1.0  0.22727528895092605  0.7727246297965749  0.7727247650434571  1.0000
  Cl  Cl5       1.0  0.22727525238482466  0.7727248028248995  0.22727513466318827  1.0000
  Cl  Cl6       1.0  0.7727246457156491  0.22727530470561508  0.7727247145877478  1.0000
