data_image0
_chemical_formula_structural       Tl2CF6
_chemical_formula_sum              "Tl2 C1 F6"
_cell_length_a       5.888756288550128
_cell_length_b       5.8887562977848775
_cell_length_c       5.888756224005393
_cell_angle_alpha    59.99999870468311
_cell_angle_beta     59.99999989205317
_cell_angle_gamma    59.99999990595687

_space_group_name_H-M_alt    "P 1"
_space_group_IT_number       1

loop_
  _space_group_symop_operation_xyz
  'x, y, z'

loop_
  _atom_site_type_symbol
  _atom_site_label
  _atom_site_symmetry_multiplicity
  _atom_site_fract_x
  _atom_site_fract_y
  _atom_site_fract_z
  _atom_site_occupancy
  Tl  Tl1       1.0  0.2500000550248503  0.24999997174007502  0.24999992272276036  1.0000
  Tl  Tl2       1.0  0.7500000113359476  0.7499998881827902  0.7500000895049002  1.0000
  C   C1        1.0  2.1569420242702885e-07  1.4239334133346375e-15  0.9999998870584429  1.0000
  F   F1        1.0  0.19263381481709066  0.19263386152930678  0.8073661681613996  1.0000
  F   F2        1.0  0.8073660490011777  0.8073659942339546  0.19263383364118009  1.0000
  F   F3        1.0  0.8073661793065665  0.19263389570055509  0.1926337366385382  1.0000
  F   F4        1.0  0.19263377159809558  0.8073661576439214  0.8073663198158041  1.0000
  F   F5        1.0  0.19263378674851434  0.8073662974136402  0.1926337263036842  1.0000
  F   F6        1.0  0.8073660842333185  0.19263393687363387  0.8073663730390024  1.0000
