data_image0
_chemical_formula_structural       Tl2CrF6
_chemical_formula_sum              "Tl2 Cr1 F6"
_cell_length_a       6.230575744695454
_cell_length_b       6.230576624540652
_cell_length_c       6.230575764524539
_cell_angle_alpha    59.9999959324815
_cell_angle_beta     60.000001459232564
_cell_angle_gamma    60.00000307487706

_space_group_name_H-M_alt    "P 1"
_space_group_IT_number       1

loop_
  _space_group_symop_operation_xyz
  'x, y, z'

loop_
  _atom_site_type_symbol
  _atom_site_label
  _atom_site_symmetry_multiplicity
  _atom_site_fract_x
  _atom_site_fract_y
  _atom_site_fract_z
  _atom_site_occupancy
  Tl  Tl1       1.0  0.25000006698187754  0.24999997072540708  0.25000004286162497  1.0000
  Tl  Tl2       1.0  0.7499999537109443  0.7499998866221098  0.7500002152246423  1.0000
  Cr  Cr1       1.0  3.493291401994271e-08  0.9999999174406038  0.9999997044206136  1.0000
  F   F1        1.0  0.21380471836037515  0.21380477061597586  0.7861951101492514  1.0000
  F   F2        1.0  0.7861953772665784  0.7861952066393287  0.21380465087401074  1.0000
  F   F3        1.0  0.7861946646399406  0.21380518825091593  0.2138052079567285  1.0000
  F   F4        1.0  0.21380461673503387  0.7861951801787489  0.7861953440060144  1.0000
  F   F5        1.0  0.2138049018623907  0.7861952651379112  0.213804610354736  1.0000
  F   F6        1.0  0.78619558456595  0.2138045627241278  0.7861952418229097  1.0000
