data_image0
_chemical_formula_structural       Tl2CoI6
_chemical_formula_sum              "Tl2 Co1 I6"
_cell_length_a       7.701670753764049
_cell_length_b       7.701671658831547
_cell_length_c       7.7016704499873425
_cell_angle_alpha    60.00000125441286
_cell_angle_beta     60.000004961439735
_cell_angle_gamma    59.999997286642134

_space_group_name_H-M_alt    "P 1"
_space_group_IT_number       1

loop_
  _space_group_symop_operation_xyz
  'x, y, z'

loop_
  _atom_site_type_symbol
  _atom_site_label
  _atom_site_symmetry_multiplicity
  _atom_site_fract_x
  _atom_site_fract_y
  _atom_site_fract_z
  _atom_site_occupancy
  Tl  Tl1       1.0  0.2499999817823414  0.2500000355818546  0.2499999550811505  1.0000
  Tl  Tl2       1.0  0.750000019103164  0.7499999079664845  0.7500000874605423  1.0000
  Co  Co1       1.0  3.6707742690231284e-08  1.192674450782495e-07  0.9999997726941475  1.0000
  I   I1        1.0  0.24602915594907  0.24602894000223263  0.753970937220786  1.0000
  I   I2        1.0  0.7539707794382029  0.7539709526586713  0.2460291492311243  1.0000
  I   I3        1.0  0.7539708540457336  0.24602914706280504  0.24602899814093687  1.0000
  I   I4        1.0  0.24602906790502369  0.7539709523283247  0.7539710358103788  1.0000
  I   I5        1.0  0.24602936775699386  0.7539709231823845  0.24602873967504096  1.0000
  I   I6        1.0  0.7539707475133615  0.24602902354640788  0.7539713116018233  1.0000
