data_image0
_chemical_formula_structural       Tl2CI6
_chemical_formula_sum              "Tl2 C1 I6"
_cell_length_a       7.673311860430631
_cell_length_b       7.673310988834004
_cell_length_c       7.673312653294992
_cell_angle_alpha    60.000001347046705
_cell_angle_beta     59.99999388838758
_cell_angle_gamma    60.00000701971479

_space_group_name_H-M_alt    "P 1"
_space_group_IT_number       1

loop_
  _space_group_symop_operation_xyz
  'x, y, z'

loop_
  _atom_site_type_symbol
  _atom_site_label
  _atom_site_symmetry_multiplicity
  _atom_site_fract_x
  _atom_site_fract_y
  _atom_site_fract_z
  _atom_site_occupancy
  Tl  Tl1       1.0  0.24999988354624986  0.25000002290841766  0.25000006343560477  1.0000
  Tl  Tl2       1.0  0.7500000758684456  0.7499999442287126  0.749999972172878  1.0000
  C   C1        1.0  9.668704678006682e-08  1.1172768818927969e-07  0.9999997094324483  1.0000
  I   I1        1.0  0.24488450067808182  0.24488407405552928  0.7551157138690396  1.0000
  I   I2        1.0  0.7551153154442495  0.7551158579671701  0.24488444222007608  1.0000
  I   I3        1.0  0.7551154584725734  0.24488419763937866  0.2448840625573337  1.0000
  I   I4        1.0  0.24488455257563374  0.7551158764371264  0.7551159054936749  1.0000
  I   I5        1.0  0.24488457814294518  0.7551157916222877  0.24488384672223262  1.0000
  I   I6        1.0  0.7551155369991702  0.24488413720823046  0.7551162318268531  1.0000
