data_image0
_chemical_formula_structural       Tl2CBr6
_chemical_formula_sum              "Tl2 C1 Br6"
_cell_length_a       7.641479534826667
_cell_length_b       7.6414752483764
_cell_length_c       7.641478995733922
_cell_angle_alpha    59.99998899217509
_cell_angle_beta     59.99999761909063
_cell_angle_gamma    59.9999934396611

_space_group_name_H-M_alt    "P 1"
_space_group_IT_number       1

loop_
  _space_group_symop_operation_xyz
  'x, y, z'

loop_
  _atom_site_type_symbol
  _atom_site_label
  _atom_site_symmetry_multiplicity
  _atom_site_fract_x
  _atom_site_fract_y
  _atom_site_fract_z
  _atom_site_occupancy
  Tl  Tl1       1.0  0.24999995512354667  0.2499999787682635  0.2500000525985133  1.0000
  Tl  Tl2       1.0  0.7499999921638167  0.7500000228538286  0.7499998836175913  1.0000
  C   C1        1.0  0.9999998114037731  0.9999999583282362  2.9572731239581845e-07  1.0000
  Br  Br1       1.0  0.2190356467074558  0.21903589519420602  0.7809644018675103  1.0000
  Br  Br2       1.0  0.7809644146480678  0.7809639092884576  0.21903605746638177  1.0000
  Br  Br3       1.0  0.780964469518272  0.21903590123389688  0.21903568273159776  1.0000
  Br  Br4       1.0  0.2190358664010755  0.7809637686169106  0.7809641216710023  1.0000
  Br  Br5       1.0  0.21903573167932464  0.7809640443387112  0.21903589009154206  1.0000
  Br  Br6       1.0  0.7809641233785951  0.21903635637058738  0.7809636623737949  1.0000
