data_image0
_chemical_formula_structural       Tl2CoF6
_chemical_formula_sum              "Tl2 Co1 F6"
_cell_length_a       5.874600718664213
_cell_length_b       5.874600817784616
_cell_length_c       5.874600773513599
_cell_angle_alpha    60.00000391748187
_cell_angle_beta     60.000000856022716
_cell_angle_gamma    60.00000370792347

_space_group_name_H-M_alt    "P 1"
_space_group_IT_number       1

loop_
  _space_group_symop_operation_xyz
  'x, y, z'

loop_
  _atom_site_type_symbol
  _atom_site_label
  _atom_site_symmetry_multiplicity
  _atom_site_fract_x
  _atom_site_fract_y
  _atom_site_fract_z
  _atom_site_occupancy
  Tl  Tl1       1.0  0.2500000178335595  0.25000009927965916  0.24999990176189055  1.0000
  Tl  Tl2       1.0  0.7500000735995149  0.7499999309117755  0.7499999825366878  1.0000
  Co  Co1       1.0  2.0827679854907647e-08  0.9999999728974236  3.0373341028265744e-08  1.0000
  F   F1        1.0  0.22414618613970344  0.22414643905017576  0.775853700100845  1.0000
  F   F2        1.0  0.7758539862399004  0.775853572377942  0.22414628417886392  1.0000
  F   F3        1.0  0.7758537237017296  0.22414627864980177  0.22414611881406718  1.0000
  F   F4        1.0  0.22414634075150366  0.7758536201983721  0.7758538650729785  1.0000
  F   F5        1.0  0.22414617747270085  0.7758536601445098  0.2241462882198131  1.0000
  F   F6        1.0  0.7758534707098145  0.22414649096611086  0.7758537470309915  1.0000
