data_image0
_chemical_formula_structural       Tl2CrCl6
_chemical_formula_sum              "Tl2 Cr1 Cl6"
_cell_length_a       7.100649013339615
_cell_length_b       7.100648596708772
_cell_length_c       7.1006490560380495
_cell_angle_alpha    59.99999927326114
_cell_angle_beta     59.999999843517315
_cell_angle_gamma    60.00000009349926

_space_group_name_H-M_alt    "P 1"
_space_group_IT_number       1

loop_
  _space_group_symop_operation_xyz
  'x, y, z'

loop_
  _atom_site_type_symbol
  _atom_site_label
  _atom_site_symmetry_multiplicity
  _atom_site_fract_x
  _atom_site_fract_y
  _atom_site_fract_z
  _atom_site_occupancy
  Tl  Tl1       1.0  0.24999999140477464  0.2500000342870401  0.24999998877487387  1.0000
  Tl  Tl2       1.0  0.7499999678251335  0.7500000683644157  0.7499999825426029  1.0000
  Cr  Cr1       1.0  7.914222085948993e-08  0.9999999430804404  9.028784994095245e-08  1.0000
  Cl  Cl1       1.0  0.23271607690012033  0.23271606836364883  0.7672839671024427  1.0000
  Cl  Cl2       1.0  0.7672838570351106  0.7672839394218695  0.23271609246177943  1.0000
  Cl  Cl3       1.0  0.7672838458432241  0.23271609363049475  0.2327161521746613  1.0000
  Cl  Cl4       1.0  0.2327161106135093  0.7672838417119425  0.7672838168679488  1.0000
  Cl  Cl5       1.0  0.23271613490936224  0.7672838608314466  0.2327161140871924  1.0000
  Cl  Cl6       1.0  0.7672839156352586  0.2327161435044014  0.7672837818647011  1.0000
