data_image0
_chemical_formula_structural       Tl2FeF6
_chemical_formula_sum              "Tl2 Fe1 F6"
_cell_length_a       6.083644619860135
_cell_length_b       6.083645097681918
_cell_length_c       6.083644750400443
_cell_angle_alpha    59.99999987871163
_cell_angle_beta     60.0000006863431
_cell_angle_gamma    59.99999832800109

_space_group_name_H-M_alt    "P 1"
_space_group_IT_number       1

loop_
  _space_group_symop_operation_xyz
  'x, y, z'

loop_
  _atom_site_type_symbol
  _atom_site_label
  _atom_site_symmetry_multiplicity
  _atom_site_fract_x
  _atom_site_fract_y
  _atom_site_fract_z
  _atom_site_occupancy
  Tl  Tl1       1.0  0.25000004317135316  0.2500000215526748  0.24999999356789304  1.0000
  Tl  Tl2       1.0  0.7500000123355801  0.7499999720519333  0.7499999360145809  1.0000
  Fe  Fe1       1.0  0.9999999881512116  2.415811538490971e-08  0.9999999198765198  1.0000
  F   F1        1.0  0.22355166397865284  0.22355170038492114  0.7764484613660614  1.0000
  F   F2        1.0  0.776448368235382  0.7764482207453426  0.22355174293773766  1.0000
  F   F3        1.0  0.7764484315431613  0.2235515482601224  0.22355159468026506  1.0000
  F   F4        1.0  0.22355169311894238  0.776448368843792  0.7764483467937298  1.0000
  F   F5        1.0  0.22355155016191983  0.7764484668968265  0.2235515190838837  1.0000
  F   F6        1.0  0.7764482111650592  0.22355169178823042  0.7764484536795682  1.0000
