data_image0
_chemical_formula_structural       Tl2FeI6
_chemical_formula_sum              "Tl2 Fe1 I6"
_cell_length_a       7.807991788683237
_cell_length_b       7.8079913395375335
_cell_length_c       7.807991552043819
_cell_angle_alpha    60.00000610721149
_cell_angle_beta     60.00000260302735
_cell_angle_gamma    60.00000445701982

_space_group_name_H-M_alt    "P 1"
_space_group_IT_number       1

loop_
  _space_group_symop_operation_xyz
  'x, y, z'

loop_
  _atom_site_type_symbol
  _atom_site_label
  _atom_site_symmetry_multiplicity
  _atom_site_fract_x
  _atom_site_fract_y
  _atom_site_fract_z
  _atom_site_occupancy
  Tl  Tl1       1.0  0.2500000800973994  0.2500000070996913  0.2499999731746729  1.0000
  Tl  Tl2       1.0  0.7499999320157398  0.7499999789474409  0.7500000269588867  1.0000
  Fe  Fe1       1.0  1.9882732788856078e-07  0.9999999137281539  0.999999549254617  1.0000
  I   I1        1.0  0.22374393533478898  0.2237438229712151  0.7762560531735727  1.0000
  I   I2        1.0  0.7762560009690017  0.7762560799412506  0.22374401746681544  1.0000
  I   I3        1.0  0.7762558696200801  0.22374402805523003  0.2237441776978603  1.0000
  I   I4        1.0  0.22374381296888857  0.7762562544532745  0.7762562398384454  1.0000
  I   I5        1.0  0.22374406777827324  0.7762558892079392  0.22374401565072646  1.0000
  I   I6        1.0  0.7762560879954574  0.22374403409605403  0.776255955550757  1.0000
