data_image0
_chemical_formula_structural       Tl2FeBr6
_chemical_formula_sum              "Tl2 Fe1 Br6"
_cell_length_a       7.458732714404885
_cell_length_b       7.458730824575123
_cell_length_c       7.458734161534551
_cell_angle_alpha    59.99998819647362
_cell_angle_beta     59.99999954286942
_cell_angle_gamma    59.999974009388524

_space_group_name_H-M_alt    "P 1"
_space_group_IT_number       1

loop_
  _space_group_symop_operation_xyz
  'x, y, z'

loop_
  _atom_site_type_symbol
  _atom_site_label
  _atom_site_symmetry_multiplicity
  _atom_site_fract_x
  _atom_site_fract_y
  _atom_site_fract_z
  _atom_site_occupancy
  Tl  Tl1       1.0  0.25000003476850435  0.24999998682486305  0.24999996982429692  1.0000
  Tl  Tl2       1.0  0.7500000425979999  0.7500000573543045  0.7499999012717595  1.0000
  Fe  Fe1       1.0  0.9999999929945583  0.9999999885057967  0.9999998108247314  1.0000
  Br  Br1       1.0  0.2165827606735139  0.21658286671223287  0.783417140430376  1.0000
  Br  Br2       1.0  0.7834169363442127  0.7834169623612222  0.21658330189775765  1.0000
  Br  Br3       1.0  0.7834172374697583  0.2165826419340458  0.21658295815496947  1.0000
  Br  Br4       1.0  0.21658286871811266  0.7834173250697581  0.7834168566754807  1.0000
  Br  Br5       1.0  0.2165826800932004  0.7834175008512322  0.21658264050168594  1.0000
  Br  Br6       1.0  0.7834174026822596  0.21658263856561139  0.7834173156827743  1.0000
