data_image0
_chemical_formula_structural       Tl2GeBr6
_chemical_formula_sum              "Tl2 Ge1 Br6"
_cell_length_a       7.453739989505369
_cell_length_b       7.453740237558079
_cell_length_c       7.453739949629704
_cell_angle_alpha    59.999998225679704
_cell_angle_beta     60.00000064883782
_cell_angle_gamma    60.0000006594779

_space_group_name_H-M_alt    "P 1"
_space_group_IT_number       1

loop_
  _space_group_symop_operation_xyz
  'x, y, z'

loop_
  _atom_site_type_symbol
  _atom_site_label
  _atom_site_symmetry_multiplicity
  _atom_site_fract_x
  _atom_site_fract_y
  _atom_site_fract_z
  _atom_site_occupancy
  Tl  Tl1       1.0  0.24999999379149357  0.2499999540325598  0.2500000017843788  1.0000
  Tl  Tl2       1.0  0.7500000631172157  0.7500000165517033  0.7499999851921657  1.0000
  Ge  Ge1       1.0  0.9999999517587391  0.9999999030554567  0.9999999102582898  1.0000
  Br  Br1       1.0  0.2388490068974793  0.2388490500356037  0.7611509441181303  1.0000
  Br  Br2       1.0  0.7611509788251419  0.7611511062221205  0.23884888096926926  1.0000
  Br  Br3       1.0  0.7611509300486684  0.23884903850520564  0.23884907624601978  1.0000
  Br  Br4       1.0  0.23884893806432575  0.7611510569567749  0.7611510728255332  1.0000
  Br  Br5       1.0  0.2388490971675785  0.7611509625838504  0.23884905966837897  1.0000
  Br  Br6       1.0  0.7611510331475376  0.23884892255775497  0.7611510889528657  1.0000
