data_image0
_chemical_formula_structural       Tl2GeF6
_chemical_formula_sum              "Tl2 Ge1 F6"
_cell_length_a       6.235121457889416
_cell_length_b       6.235121388964254
_cell_length_c       6.235121381494495
_cell_angle_alpha    60.000001436450674
_cell_angle_beta     60.00000111155929
_cell_angle_gamma    60.00000059040719

_space_group_name_H-M_alt    "P 1"
_space_group_IT_number       1

loop_
  _space_group_symop_operation_xyz
  'x, y, z'

loop_
  _atom_site_type_symbol
  _atom_site_label
  _atom_site_symmetry_multiplicity
  _atom_site_fract_x
  _atom_site_fract_y
  _atom_site_fract_z
  _atom_site_occupancy
  Tl  Tl1       1.0  0.24999998709322888  0.24999997272350952  0.2500000383796471  1.0000
  Tl  Tl2       1.0  0.750000033485662  0.7499999515630821  0.7500000559244056  1.0000
  Ge  Ge1       1.0  1.6872767690851808e-08  2.1606946109650042e-08  0.9999999550990551  1.0000
  F   F1        1.0  0.2080343885080283  0.20803439829203527  0.7919655022109698  1.0000
  F   F2        1.0  0.7919656589125487  0.7919656399220908  0.2080344110450311  1.0000
  F   F3        1.0  0.7919655495449113  0.2080343975144339  0.20803438216903827  1.0000
  F   F4        1.0  0.2080344184673748  0.7919656289140862  0.791965650459539  1.0000
  F   F5        1.0  0.20803435991392918  0.7919655976548671  0.2080343671312764  1.0000
  F   F6        1.0  0.7919656103996398  0.20803440520243832  0.7919656600940864  1.0000
