data_image0
_chemical_formula_structural       Tl2GeI6
_chemical_formula_sum              "Tl2 Ge1 I6"
_cell_length_a       7.959404452589469
_cell_length_b       7.959404496006306
_cell_length_c       7.959404736804153
_cell_angle_alpha    59.99999713590587
_cell_angle_beta     60.00000013805692
_cell_angle_gamma    60.000003408686524

_space_group_name_H-M_alt    "P 1"
_space_group_IT_number       1

loop_
  _space_group_symop_operation_xyz
  'x, y, z'

loop_
  _atom_site_type_symbol
  _atom_site_label
  _atom_site_symmetry_multiplicity
  _atom_site_fract_x
  _atom_site_fract_y
  _atom_site_fract_z
  _atom_site_occupancy
  Tl  Tl1       1.0  0.24999995722448665  0.24999999474279974  0.24999993901204337  1.0000
  Tl  Tl2       1.0  0.7500000410577269  0.7500000026932727  0.7500000246416479  1.0000
  Ge  Ge1       1.0  2.253797735278133e-08  0.9999999846126089  0.999999953707945  1.0000
  I   I1        1.0  0.25799803205552596  0.25799820153045233  0.7420019177262285  1.0000
  I   I2        1.0  0.7420019657137756  0.7420017974443579  0.2579980969259395  1.0000
  I   I3        1.0  0.7420018441744479  0.25799811530457684  0.2579981959367167  1.0000
  I   I4        1.0  0.2579981419889555  0.7420018836702325  0.7420018383385298  1.0000
  I   I5        1.0  0.25799811161801817  0.742001916310355  0.2579981123793082  1.0000
  I   I6        1.0  0.7420018807581484  0.25799811190050215  0.7420019117097848  1.0000
