data_image0
_chemical_formula_structural       Tl2HfCl6
_chemical_formula_sum              "Tl2 Hf1 Cl6"
_cell_length_a       7.260314280690537
_cell_length_b       7.260314138674539
_cell_length_c       7.260314176235857
_cell_angle_alpha    60.000000116787874
_cell_angle_beta     59.999999862908
_cell_angle_gamma    59.99999773851025

_space_group_name_H-M_alt    "P 1"
_space_group_IT_number       1

loop_
  _space_group_symop_operation_xyz
  'x, y, z'

loop_
  _atom_site_type_symbol
  _atom_site_label
  _atom_site_symmetry_multiplicity
  _atom_site_fract_x
  _atom_site_fract_y
  _atom_site_fract_z
  _atom_site_occupancy
  Tl  Tl1       1.0  0.2500000000922603  0.2500000283686647  0.24999997990515108  1.0000
  Tl  Tl2       1.0  0.7500000058529772  0.7499999872655952  0.7500000230360278  1.0000
  Hf  Hf1       1.0  9.206841403484175e-08  0.9999999814440593  0.9999998131125187  1.0000
  Cl  Cl1       1.0  0.23925085068326993  0.23925081959220523  0.7607491771890734  1.0000
  Cl  Cl2       1.0  0.7607491053495897  0.7607491167575948  0.23925089999198043  1.0000
  Cl  Cl3       1.0  0.7607492205327722  0.23925076429749184  0.2392508179367091  1.0000
  Cl  Cl4       1.0  0.23925072467022884  0.760749295196259  0.7607492540492808  1.0000
  Cl  Cl5       1.0  0.23925080843269747  0.7607492062539993  0.23925083548366127  1.0000
  Cl  Cl6       1.0  0.7607492105253894  0.23925079419812975  0.7607492002212282  1.0000
