data_image0
_chemical_formula_structural       Tl2HfF6
_chemical_formula_sum              "Tl2 Hf1 F6"
_cell_length_a       6.335187210900763
_cell_length_b       6.335186718717816
_cell_length_c       6.33518647977492
_cell_angle_alpha    60.00000230930471
_cell_angle_beta     60.00000240675068
_cell_angle_gamma    60.00000102791185

_space_group_name_H-M_alt    "P 1"
_space_group_IT_number       1

loop_
  _space_group_symop_operation_xyz
  'x, y, z'

loop_
  _atom_site_type_symbol
  _atom_site_label
  _atom_site_symmetry_multiplicity
  _atom_site_fract_x
  _atom_site_fract_y
  _atom_site_fract_z
  _atom_site_occupancy
  Tl  Tl1       1.0  0.25000002354116946  0.2500000968741268  0.2499998996881271  1.0000
  Tl  Tl2       1.0  0.7499999583030954  0.7500000315679652  0.7500000457573155  1.0000
  Hf  Hf1       1.0  1.2464993927531389e-08  0.9999999516689516  0.9999999863633167  1.0000
  F   F1        1.0  0.2243441602229439  0.22434413885739987  0.7756558625311046  1.0000
  F   F2        1.0  0.7756558536588318  0.7756558387918226  0.22434412808564622  1.0000
  F   F3        1.0  0.7756558913739979  0.22434412720265703  0.22434415226984436  1.0000
  F   F4        1.0  0.2243441510451785  0.7756558195146958  0.7756558711138505  1.0000
  F   F5        1.0  0.22434412280332147  0.7756558621379072  0.22434415097670846  1.0000
  F   F6        1.0  0.7756558250197967  0.2243441387102186  0.7756559005320579  1.0000
