data_image0
_chemical_formula_structural       Tl2HfI6
_chemical_formula_sum              "Tl2 Hf1 I6"
_cell_length_a       8.204456347308126
_cell_length_b       8.204456340006004
_cell_length_c       8.204456323186559
_cell_angle_alpha    60.000000176045404
_cell_angle_beta     60.0000001182526
_cell_angle_gamma    59.999999992378356

_space_group_name_H-M_alt    "P 1"
_space_group_IT_number       1

loop_
  _space_group_symop_operation_xyz
  'x, y, z'

loop_
  _atom_site_type_symbol
  _atom_site_label
  _atom_site_symmetry_multiplicity
  _atom_site_fract_x
  _atom_site_fract_y
  _atom_site_fract_z
  _atom_site_occupancy
  Tl  Tl1       1.0  0.25000000451729587  0.24999999733795855  0.24999999912233375  1.0000
  Tl  Tl2       1.0  0.7499999983972623  0.7499999994777761  0.7500000012123635  1.0000
  Hf  Hf1       1.0  0.9999999976827803  0.99999999850722  5.561549283496663e-09  1.0000
  I   I1        1.0  0.245303959834231  0.24530395820697765  0.7546960420494231  1.0000
  I   I2        1.0  0.7546960397679208  0.7546960401015368  0.24530396163278703  1.0000
  I   I3        1.0  0.7546960485631586  0.24530395434801952  0.24530394944091158  1.0000
  I   I4        1.0  0.2453039547636195  0.754696045453275  0.7546960479760461  1.0000
  I   I5        1.0  0.24530395244811054  0.7546960478542613  0.2453039510811432  1.0000
  I   I6        1.0  0.754696043258668  0.2453039579181536  0.754696042284855  1.0000
