data_image0
_chemical_formula_structural       Tl2HfBr6
_chemical_formula_sum              "Tl2 Hf1 Br6"
_cell_length_a       7.624595452095183
_cell_length_b       7.624595462659456
_cell_length_c       7.624595791365154
_cell_angle_alpha    59.999998419394885
_cell_angle_beta     59.999999428605804
_cell_angle_gamma    60.00000259463633

_space_group_name_H-M_alt    "P 1"
_space_group_IT_number       1

loop_
  _space_group_symop_operation_xyz
  'x, y, z'

loop_
  _atom_site_type_symbol
  _atom_site_label
  _atom_site_symmetry_multiplicity
  _atom_site_fract_x
  _atom_site_fract_y
  _atom_site_fract_z
  _atom_site_occupancy
  Tl  Tl1       1.0  0.2499999846284286  0.2499999742289843  0.25000002123556797  1.0000
  Tl  Tl2       1.0  0.7499999976491858  0.7500000367348233  0.749999983489274  1.0000
  Hf  Hf1       1.0  8.457772074282149e-08  9.155955980713205e-08  0.9999999237352646  1.0000
  Br  Br1       1.0  0.2432632149381518  0.2432632167924788  0.7567367761464102  1.0000
  Br  Br2       1.0  0.7567366200738519  0.7567366544225261  0.2432633825779969  1.0000
  Br  Br3       1.0  0.7567366585584464  0.2432633442563181  0.24326335866752205  1.0000
  Br  Br4       1.0  0.24326338250679566  0.7567366811642641  0.7567365818926755  1.0000
  Br  Br5       1.0  0.2432633793981741  0.7567366356216477  0.24326337339016696  1.0000
  Br  Br6       1.0  0.7567366680004335  0.24326337534216236  0.7567365961510876  1.0000
