data_image0
_chemical_formula_structural       Tl2IrI6
_chemical_formula_sum              "Tl2 Ir1 I6"
_cell_length_a       7.792566607934185
_cell_length_b       7.792566653755656
_cell_length_c       7.792566612880896
_cell_angle_alpha    60.000001011158965
_cell_angle_beta     60.000001756880884
_cell_angle_gamma    59.999997342185

_space_group_name_H-M_alt    "P 1"
_space_group_IT_number       1

loop_
  _space_group_symop_operation_xyz
  'x, y, z'

loop_
  _atom_site_type_symbol
  _atom_site_label
  _atom_site_symmetry_multiplicity
  _atom_site_fract_x
  _atom_site_fract_y
  _atom_site_fract_z
  _atom_site_occupancy
  Tl  Tl1       1.0  0.24999993449723232  0.24999995015811222  0.2500001785654985  1.0000
  Tl  Tl2       1.0  0.7500001001027623  0.7500000186444623  0.7499998156616936  1.0000
  Ir  Ir1       1.0  0.9999999810834066  0.9999998522617477  2.9429903563571345e-08  1.0000
  I   I1        1.0  0.24401978669591468  0.24401966290687516  0.7559802655363822  1.0000
  I   I2        1.0  0.7559802864590082  0.7559804080551281  0.24401969554858557  1.0000
  I   I3        1.0  0.7559801980984172  0.24401971387003218  0.24401978221188356  1.0000
  I   I4        1.0  0.24401974326641887  0.7559803523769256  0.7559802522587455  1.0000
  I   I5        1.0  0.24401976020858415  0.755980327379661  0.24401966894842253  1.0000
  I   I6        1.0  0.755980205404328  0.2440197105769919  0.7559803110792546  1.0000
