data_image0
_chemical_formula_structural       Tl2IrCl6
_chemical_formula_sum              "Tl2 Ir1 Cl6"
_cell_length_a       7.1314377384310506
_cell_length_b       7.1314375523848685
_cell_length_c       7.131437946216618
_cell_angle_alpha    59.99999749593217
_cell_angle_beta     59.999997488893804
_cell_angle_gamma    60.00000274713652

_space_group_name_H-M_alt    "P 1"
_space_group_IT_number       1

loop_
  _space_group_symop_operation_xyz
  'x, y, z'

loop_
  _atom_site_type_symbol
  _atom_site_label
  _atom_site_symmetry_multiplicity
  _atom_site_fract_x
  _atom_site_fract_y
  _atom_site_fract_z
  _atom_site_occupancy
  Tl  Tl1       1.0  0.24999996302088534  0.25000000426392754  0.25000000050083904  1.0000
  Tl  Tl2       1.0  0.7500000261364391  0.7499999853135741  0.7499999467047284  1.0000
  Ir  Ir1       1.0  1.210308499519249e-08  0.999999987978281  6.44624372316272e-08  1.0000
  Cl  Cl1       1.0  0.23309980093247915  0.2330996699329424  0.7669002892238092  1.0000
  Cl  Cl2       1.0  0.7669002987689032  0.7669003814705511  0.23309966995365405  1.0000
  Cl  Cl3       1.0  0.7669000966222598  0.2330998148304025  0.2330999754470321  1.0000
  Cl  Cl4       1.0  0.23309986015167664  0.7669001747470973  0.7669000370286917  1.0000
  Cl  Cl5       1.0  0.23309985233295147  0.766900184311257  0.23309989813197746  1.0000
  Cl  Cl6       1.0  0.7669001093967119  0.23309980011407744  0.7669001186486907  1.0000
