data_image0
_chemical_formula_structural       Tl2IrBr6
_chemical_formula_sum              "Tl2 Ir1 Br6"
_cell_length_a       7.388775401511917
_cell_length_b       7.388775327914856
_cell_length_c       7.388775269454709
_cell_angle_alpha    60.00000084042495
_cell_angle_beta     60.00000025278874
_cell_angle_gamma    60.00000095115283

_space_group_name_H-M_alt    "P 1"
_space_group_IT_number       1

loop_
  _space_group_symop_operation_xyz
  'x, y, z'

loop_
  _atom_site_type_symbol
  _atom_site_label
  _atom_site_symmetry_multiplicity
  _atom_site_fract_x
  _atom_site_fract_y
  _atom_site_fract_z
  _atom_site_occupancy
  Tl  Tl1       1.0  0.2500000061127872  0.25000001010512307  0.24999997411093275  1.0000
  Tl  Tl2       1.0  0.7500000020172675  0.7499999573820738  0.750000038690419  1.0000
  Ir  Ir1       1.0  0.999999987086065  7.624844553457341e-08  0.9999999493850854  1.0000
  Br  Br1       1.0  0.23952191429837763  0.2395219243493594  0.7604780893052766  1.0000
  Br  Br2       1.0  0.7604781175251915  0.7604780845772104  0.2395218868694187  1.0000
  Br  Br3       1.0  0.7604780968211425  0.23952190461866996  0.23952189893201498  1.0000
  Br  Br4       1.0  0.23952188371519373  0.7604780893897249  0.7604780819238948  1.0000
  Br  Br5       1.0  0.23952195187491024  0.7604780355786397  0.2395219717926034  1.0000
  Br  Br6       1.0  0.7604780334608183  0.2395219252782576  0.7604780922629766  1.0000
