data_image0
_chemical_formula_structural       Tl2MoI6
_chemical_formula_sum              "Tl2 Mo1 I6"
_cell_length_a       7.958597740408763
_cell_length_b       7.958597728349548
_cell_length_c       7.958597749647425
_cell_angle_alpha    60.00000203498848
_cell_angle_beta     59.9999991092674
_cell_angle_gamma    60.000003055805614

_space_group_name_H-M_alt    "P 1"
_space_group_IT_number       1

loop_
  _space_group_symop_operation_xyz
  'x, y, z'

loop_
  _atom_site_type_symbol
  _atom_site_label
  _atom_site_symmetry_multiplicity
  _atom_site_fract_x
  _atom_site_fract_y
  _atom_site_fract_z
  _atom_site_occupancy
  Tl  Tl1       1.0  0.24999997521352788  0.24999997665471332  0.25000011004719797  1.0000
  Tl  Tl2       1.0  0.7500000075036065  0.7500000499979627  0.7499998748593956  1.0000
  Mo  Mo1       1.0  0.9999999729008684  7.694475420941947e-08  0.9999996785425399  1.0000
  I   I1        1.0  0.24794947415790378  0.2479495185002959  0.7520504583501332  1.0000
  I   I2        1.0  0.752050499210237  0.7520504404409862  0.2479494896964876  1.0000
  I   I3        1.0  0.7520504171286034  0.24794957504426937  0.24794957623344854  1.0000
  I   I4        1.0  0.24794938808017852  0.7520505793367137  0.7520506157560705  1.0000
  I   I5        1.0  0.24794968672284357  0.7520503101214734  0.24794967947262744  1.0000
  I   I6        1.0  0.7520505605431864  0.24794946261349796  0.7520505388538885  1.0000
