data_image0
_chemical_formula_structural       Tl2MnCl6
_chemical_formula_sum              "Tl2 Mn1 Cl6"
_cell_length_a       7.161933339916994
_cell_length_b       7.161933350103421
_cell_length_c       7.161933123410989
_cell_angle_alpha    60.000002159947314
_cell_angle_beta     59.99999896923842
_cell_angle_gamma    59.99999968234289

_space_group_name_H-M_alt    "P 1"
_space_group_IT_number       1

loop_
  _space_group_symop_operation_xyz
  'x, y, z'

loop_
  _atom_site_type_symbol
  _atom_site_label
  _atom_site_symmetry_multiplicity
  _atom_site_fract_x
  _atom_site_fract_y
  _atom_site_fract_z
  _atom_site_occupancy
  Tl  Tl1       1.0  0.24999998960348307  0.2500000058601879  0.24999999331447165  1.0000
  Tl  Tl2       1.0  0.7500000233511728  0.750000003899958  0.7500000125716555  1.0000
  Mn  Mn1       1.0  0.9999999920196452  2.3941061227683355e-08  3.111523699232494e-08  1.0000
  Cl  Cl1       1.0  0.2272194440937792  0.22721969385402105  0.7727804233885712  1.0000
  Cl  Cl2       1.0  0.7727804035789665  0.7727802748643091  0.22721967728179449  1.0000
  Cl  Cl3       1.0  0.7727804688442631  0.22721967204216872  0.2272193770156947  1.0000
  Cl  Cl4       1.0  0.22721956220306203  0.772780375339642  0.7727805395773385  1.0000
  Cl  Cl5       1.0  0.2272196510762109  0.7727802873169178  0.22721955405609207  1.0000
  Cl  Cl6       1.0  0.7727804610264037  0.2272196523301208  0.7727804010095595  1.0000
