data_image0
_chemical_formula_structural       Tl2MnBr6
_chemical_formula_sum              "Tl2 Mn1 Br6"
_cell_length_a       7.449910481680435
_cell_length_b       7.449910366471478
_cell_length_c       7.449910260517723
_cell_angle_alpha    59.999999017986006
_cell_angle_beta     59.999999207005224
_cell_angle_gamma    60.00000048411001

_space_group_name_H-M_alt    "P 1"
_space_group_IT_number       1

loop_
  _space_group_symop_operation_xyz
  'x, y, z'

loop_
  _atom_site_type_symbol
  _atom_site_label
  _atom_site_symmetry_multiplicity
  _atom_site_fract_x
  _atom_site_fract_y
  _atom_site_fract_z
  _atom_site_occupancy
  Tl  Tl1       1.0  0.24999998117447397  0.25000004746569593  0.24999999833938183  1.0000
  Tl  Tl2       1.0  0.749999978361169  0.7499999681359891  0.7500000392261598  1.0000
  Mn  Mn1       1.0  3.667759420134476e-08  2.7125548696310806e-07  0.9999997319381219  1.0000
  Br  Br1       1.0  0.2273199234863939  0.22732019520651195  0.7726799162471276  1.0000
  Br  Br2       1.0  0.7726801390821302  0.7726798088873675  0.22731994266836816  1.0000
  Br  Br3       1.0  0.7726799579324555  0.2273201257396733  0.22732003380375876  1.0000
  Br  Br4       1.0  0.22731984479208056  0.7726798767102275  0.7726801572004312  1.0000
  Br  Br5       1.0  0.22732005890289075  0.7726797472262582  0.22732021283126894  1.0000
  Br  Br6       1.0  0.772680102287853  0.22731998890008098  0.7726799307592981  1.0000
