data_image0
_chemical_formula_structural       Tl2MnI6
_chemical_formula_sum              "Tl2 Mn1 I6"
_cell_length_a       7.8396495422520704
_cell_length_b       7.839649726329746
_cell_length_c       7.839648739145663
_cell_angle_alpha    59.999996768828936
_cell_angle_beta     59.99999887748337
_cell_angle_gamma    59.999988934379374

_space_group_name_H-M_alt    "P 1"
_space_group_IT_number       1

loop_
  _space_group_symop_operation_xyz
  'x, y, z'

loop_
  _atom_site_type_symbol
  _atom_site_label
  _atom_site_symmetry_multiplicity
  _atom_site_fract_x
  _atom_site_fract_y
  _atom_site_fract_z
  _atom_site_occupancy
  Tl  Tl1       1.0  0.25000002359614265  0.24999993779525267  0.24999989609049927  1.0000
  Tl  Tl2       1.0  0.7499999913819635  0.7500000383489442  0.7500000428081908  1.0000
  Mn  Mn1       1.0  2.865897391483308e-07  3.280713642061411e-08  0.9999993377280131  1.0000
  I   I1        1.0  0.24703358143817458  0.2470339460679606  0.7529663455078137  1.0000
  I   I2        1.0  0.7529663104445559  0.7529658426069155  0.2470336861704388  1.0000
  I   I3        1.0  0.7529660575841755  0.2470339482313493  0.24703419024963796  1.0000
  I   I4        1.0  0.24703343112726223  0.7529666434372007  0.7529661810823839  1.0000
  I   I5        1.0  0.2470342815499112  0.7529657695709312  0.24703407365262983  1.0000
  I   I6        1.0  0.7529660545712918  0.24703381757433096  0.7529662371993386  1.0000
