data_image0
_chemical_formula_structural       Tl2MoBr6
_chemical_formula_sum              "Tl2 Mo1 Br6"
_cell_length_a       7.492344839010015
_cell_length_b       7.492344851687739
_cell_length_c       7.492344798848368
_cell_angle_alpha    60.00000015584323
_cell_angle_beta     60.00000021209706
_cell_angle_gamma    60.00000020919687

_space_group_name_H-M_alt    "P 1"
_space_group_IT_number       1

loop_
  _space_group_symop_operation_xyz
  'x, y, z'

loop_
  _atom_site_type_symbol
  _atom_site_label
  _atom_site_symmetry_multiplicity
  _atom_site_fract_x
  _atom_site_fract_y
  _atom_site_fract_z
  _atom_site_occupancy
  Tl  Tl1       1.0  0.2499999964519043  0.2500000026885792  0.2500000044300757  1.0000
  Tl  Tl2       1.0  0.750000003864652  0.7500000015270911  0.7499999946234287  1.0000
  Mo  Mo1       1.0  0.9999999899436465  0.9999999885573686  0.9999999667045361  1.0000
  Br  Br1       1.0  0.24246537044800776  0.24246537428233209  0.7575346223715618  1.0000
  Br  Br2       1.0  0.7575346384772161  0.7575346364719846  0.24246535843072037  1.0000
  Br  Br3       1.0  0.7575346191055267  0.24246537493898102  0.24246536592840584  1.0000
  Br  Br4       1.0  0.2424653558203864  0.7575346407193206  0.7575346654583215  1.0000
  Br  Br5       1.0  0.24246537950302305  0.7575346199886344  0.2424653600985783  1.0000
  Br  Br6       1.0  0.7575346443985791  0.2424653597071114  0.7575346621121913  1.0000
