data_image0
_chemical_formula_structural       Tl2MoCl6
_chemical_formula_sum              "Tl2 Mo1 Cl6"
_cell_length_a       7.176114216417882
_cell_length_b       7.176114613795498
_cell_length_c       7.1761140283747205
_cell_angle_alpha    60.00000180281938
_cell_angle_beta     60.00000126031112
_cell_angle_gamma    60.00000219526441

_space_group_name_H-M_alt    "P 1"
_space_group_IT_number       1

loop_
  _space_group_symop_operation_xyz
  'x, y, z'

loop_
  _atom_site_type_symbol
  _atom_site_label
  _atom_site_symmetry_multiplicity
  _atom_site_fract_x
  _atom_site_fract_y
  _atom_site_fract_z
  _atom_site_occupancy
  Tl  Tl1       1.0  0.2499999991717624  0.25000000313593795  0.24999998337847035  1.0000
  Tl  Tl2       1.0  0.7500000153128724  0.750000004287724  0.7500000176527918  1.0000
  Mo  Mo1       1.0  0.9999998110366073  6.485446141997802e-08  0.9999999171292313  1.0000
  Cl  Cl1       1.0  0.2367215946178655  0.23672168318353992  0.7632782907515486  1.0000
  Cl  Cl2       1.0  0.7632785261140004  0.7632784061615471  0.23672148659878264  1.0000
  Cl  Cl3       1.0  0.7632782795277371  0.23672173162495316  0.23672162592000515  1.0000
  Cl  Cl4       1.0  0.23672163763070866  0.7632783167594194  0.7632784841176836  1.0000
  Cl  Cl5       1.0  0.2367217370194757  0.7632782102475522  0.23672166388029578  1.0000
  Cl  Cl6       1.0  0.7632784225955928  0.23672158383906866  0.7632785147859935  1.0000
