data_image0
_chemical_formula_structural       Tl2NiF6
_chemical_formula_sum              "Tl2 Ni1 F6"
_cell_length_a       5.668357674172122
_cell_length_b       5.668357565238873
_cell_length_c       5.668357448293226
_cell_angle_alpha    60.000002733371815
_cell_angle_beta     60.0000001639945
_cell_angle_gamma    59.999999705697874

_space_group_name_H-M_alt    "P 1"
_space_group_IT_number       1

loop_
  _space_group_symop_operation_xyz
  'x, y, z'

loop_
  _atom_site_type_symbol
  _atom_site_label
  _atom_site_symmetry_multiplicity
  _atom_site_fract_x
  _atom_site_fract_y
  _atom_site_fract_z
  _atom_site_occupancy
  Tl  Tl1       1.0  0.2499999239968597  0.2499999818942467  0.2499999598081199  1.0000
  Tl  Tl2       1.0  0.7499999917077171  0.7500000321095278  0.7499998374957046  1.0000
  Ni  Ni1       1.0  1.6296792753965765e-08  0.9999999999999981  0.999999933633681  1.0000
  F   F1        1.0  0.2314134647098681  0.23141350471726232  0.7685865524393595  1.0000
  F   F2        1.0  0.7685864289785281  0.7685864531091091  0.23141359974938613  1.0000
  F   F3        1.0  0.7685865795315775  0.23141345222451146  0.23141353384038751  1.0000
  F   F4        1.0  0.23141354301092196  0.7685865401725712  0.7685864742866932  1.0000
  F   F5        1.0  0.23141349609395295  0.7685865102160688  0.23141359485868923  1.0000
  F   F6        1.0  0.7685865587087949  0.23141354484043758  0.7685864687339417  1.0000
