data_image0
_chemical_formula_structural       Tl2NbBr6
_chemical_formula_sum              "Tl2 Nb1 Br6"
_cell_length_a       7.571493330897464
_cell_length_b       7.57149368602858
_cell_length_c       7.571493218534728
_cell_angle_alpha    60.000002121399014
_cell_angle_beta     60.00000275080758
_cell_angle_gamma    59.99999875662527

_space_group_name_H-M_alt    "P 1"
_space_group_IT_number       1

loop_
  _space_group_symop_operation_xyz
  'x, y, z'

loop_
  _atom_site_type_symbol
  _atom_site_label
  _atom_site_symmetry_multiplicity
  _atom_site_fract_x
  _atom_site_fract_y
  _atom_site_fract_z
  _atom_site_occupancy
  Tl  Tl1       1.0  0.2500000045250541  0.2499999769296833  0.25000000058086763  1.0000
  Tl  Tl2       1.0  0.7499999849980251  0.7500000165204537  0.7499999863729038  1.0000
  Nb  Nb1       1.0  1.2888755553657627e-07  1.989615506971533e-07  0.9999999760742538  1.0000
  Br  Br1       1.0  0.24137474606500595  0.24137490261102662  0.7586251642730389  1.0000
  Br  Br2       1.0  0.7586249643742509  0.7586249306993315  0.2413750581414494  1.0000
  Br  Br3       1.0  0.758625352723196  0.24137476252255685  0.2413747342676274  1.0000
  Br  Br4       1.0  0.24137486509952336  0.758625095051386  0.758625153644687  1.0000
  Br  Br5       1.0  0.241374738328366  0.7586252753212134  0.2413747923889535  1.0000
  Br  Br6       1.0  0.7586252295028053  0.24137484268209414  0.7586251286060082  1.0000
