data_image0
_chemical_formula_structural       Tl2NiI6
_chemical_formula_sum              "Tl2 Ni1 I6"
_cell_length_a       7.632539026734659
_cell_length_b       7.632538911232342
_cell_length_c       7.6325389384602405
_cell_angle_alpha    60.000000383018154
_cell_angle_beta     59.999999831107914
_cell_angle_gamma    60.00000187092198

_space_group_name_H-M_alt    "P 1"
_space_group_IT_number       1

loop_
  _space_group_symop_operation_xyz
  'x, y, z'

loop_
  _atom_site_type_symbol
  _atom_site_label
  _atom_site_symmetry_multiplicity
  _atom_site_fract_x
  _atom_site_fract_y
  _atom_site_fract_z
  _atom_site_occupancy
  Tl  Tl1       1.0  0.2499999140277228  0.25000001153573737  0.25000003460345605  1.0000
  Tl  Tl2       1.0  0.750000102284173  0.7499999479568629  0.7499999958589991  1.0000
  Ni  Ni1       1.0  0.9999999835420206  0.9999999903721818  0.9999999671865982  1.0000
  I   I1        1.0  0.2510940821368731  0.25109393608705327  0.7489060316096134  1.0000
  I   I2        1.0  0.7489059853213946  0.7489060651260906  0.2510939563499237  1.0000
  I   I3        1.0  0.748905978078808  0.25109394359881715  0.25109404728293727  1.0000
  I   I4        1.0  0.25109401210005666  0.7489061169858661  0.7489059509407126  1.0000
  I   I5        1.0  0.25109397277192885  0.7489060344938709  0.25109396521265853  1.0000
  I   I6        1.0  0.7489059720682042  0.25109394425436266  0.7489060677746214  1.0000
