data_image0
_chemical_formula_structural       Tl2NbCl6
_chemical_formula_sum              "Tl2 Nb1 Cl6"
_cell_length_a       7.201210125571973
_cell_length_b       7.201210289476071
_cell_length_c       7.2012103249282875
_cell_angle_alpha    59.999997533324475
_cell_angle_beta     59.99999755084276
_cell_angle_gamma    59.99999839307357

_space_group_name_H-M_alt    "P 1"
_space_group_IT_number       1

loop_
  _space_group_symop_operation_xyz
  'x, y, z'

loop_
  _atom_site_type_symbol
  _atom_site_label
  _atom_site_symmetry_multiplicity
  _atom_site_fract_x
  _atom_site_fract_y
  _atom_site_fract_z
  _atom_site_occupancy
  Tl  Tl1       1.0  0.25000000944256395  0.24999998875279797  0.25000001275138656  1.0000
  Tl  Tl2       1.0  0.7500000044366311  0.7500000138793583  0.7499999833408884  1.0000
  Nb  Nb1       1.0  9.576974398202964e-08  1.0714717069238709e-07  0.9999997360688515  1.0000
  Cl  Cl1       1.0  0.23771605790350828  0.2377161188031411  0.7622839360076868  1.0000
  Cl  Cl2       1.0  0.7622838335775696  0.7622838277043095  0.23771611879558185  1.0000
  Cl  Cl3       1.0  0.7622838069583568  0.23771623094840783  0.23771620746913  1.0000
  Cl  Cl4       1.0  0.23771610700197238  0.7622838261077057  0.7622838752487503  1.0000
  Cl  Cl5       1.0  0.23771624004351827  0.7622837976509593  0.23771621701885473  1.0000
  Cl  Cl6       1.0  0.7622838689774736  0.23771609273178035  0.7622839167721884  1.0000
