data_image0
_chemical_formula_structural       Tl2NiCl6
_chemical_formula_sum              "Tl2 Ni1 Cl6"
_cell_length_a       7.038343734484266
_cell_length_b       7.03834351146684
_cell_length_c       7.038343981960651
_cell_angle_alpha    59.99999696540195
_cell_angle_beta     59.99999464674257
_cell_angle_gamma    59.9999996279073

_space_group_name_H-M_alt    "P 1"
_space_group_IT_number       1

loop_
  _space_group_symop_operation_xyz
  'x, y, z'

loop_
  _atom_site_type_symbol
  _atom_site_label
  _atom_site_symmetry_multiplicity
  _atom_site_fract_x
  _atom_site_fract_y
  _atom_site_fract_z
  _atom_site_occupancy
  Tl  Tl1       1.0  0.2499999476259614  0.24999992844515084  0.25000008929339673  1.0000
  Tl  Tl2       1.0  0.7500000301319873  0.7500000602718735  0.7499999813741588  1.0000
  Ni  Ni1       1.0  1.0473307085188726e-07  0.9999999564974065  9.867653523713944e-08  1.0000
  Cl  Cl1       1.0  0.23494610990936024  0.23494618454658972  0.7650538663241829  1.0000
  Cl  Cl2       1.0  0.765053797883443  0.7650538024303284  0.23494615494867566  1.0000
  Cl  Cl3       1.0  0.7650539580912776  0.23494602942675893  0.23494614732920283  1.0000
  Cl  Cl4       1.0  0.23494608230748754  0.7650539436293314  0.7650537535071675  1.0000
  Cl  Cl5       1.0  0.2349461921754633  0.765054001087149  0.23494611903930537  1.0000
  Cl  Cl6       1.0  0.765053773731541  0.23494612161787443  0.7650537768966219  1.0000
