data_image0
_chemical_formula_structural       Tl2NiBr6
_chemical_formula_sum              "Tl2 Ni1 Br6"
_cell_length_a       7.218204824226699
_cell_length_b       7.218204847333571
_cell_length_c       7.218205206938529
_cell_angle_alpha    59.99999792806857
_cell_angle_beta     60.00000001556182
_cell_angle_gamma    59.99999899921951

_space_group_name_H-M_alt    "P 1"
_space_group_IT_number       1

loop_
  _space_group_symop_operation_xyz
  'x, y, z'

loop_
  _atom_site_type_symbol
  _atom_site_label
  _atom_site_symmetry_multiplicity
  _atom_site_fract_x
  _atom_site_fract_y
  _atom_site_fract_z
  _atom_site_occupancy
  Tl  Tl1       1.0  0.2499999783430261  0.2499999958232844  0.2500000094368907  1.0000
  Tl  Tl2       1.0  0.750000026583823  0.7499999959535756  0.7499999602814226  1.0000
  Ni  Ni1       1.0  1.1261159733617004e-07  0.9999998829246329  1.0544202358346078e-08  1.0000
  Br  Br1       1.0  0.24020631002735615  0.240206274231849  0.7597937536841199  1.0000
  Br  Br2       1.0  0.7597936974529363  0.7597936954873319  0.24020632414871287  1.0000
  Br  Br3       1.0  0.7597936134032799  0.24020636532823048  0.24020641438812743  1.0000
  Br  Br4       1.0  0.24020631308802984  0.7597937129825956  0.7597936136233383  1.0000
  Br  Br5       1.0  0.24020630417598632  0.7597937359211773  0.2402063072084353  1.0000
  Br  Br6       1.0  0.7597936140256761  0.24020635766034984  0.7597936272624174  1.0000
