data_image0
_chemical_formula_structural       Tl2NbI6
_chemical_formula_sum              "Tl2 Nb1 I6"
_cell_length_a       8.120008141086979
_cell_length_b       8.120008276627571
_cell_length_c       8.120007859306382
_cell_angle_alpha    60.000000642059106
_cell_angle_beta     60.00000038802436
_cell_angle_gamma    59.999996688927396

_space_group_name_H-M_alt    "P 1"
_space_group_IT_number       1

loop_
  _space_group_symop_operation_xyz
  'x, y, z'

loop_
  _atom_site_type_symbol
  _atom_site_label
  _atom_site_symmetry_multiplicity
  _atom_site_fract_x
  _atom_site_fract_y
  _atom_site_fract_z
  _atom_site_occupancy
  Tl  Tl1       1.0  0.25000004372615864  0.24999988182989735  0.2500000141254695  1.0000
  Tl  Tl2       1.0  0.7499999731514796  0.7500001025061027  0.7499999298274758  1.0000
  Nb  Nb1       1.0  3.1891335678284475e-09  0.9999999819003405  0.9999999914454264  1.0000
  I   I1        1.0  0.24409670525269725  0.24409670373348236  0.7559032836179572  1.0000
  I   I2        1.0  0.7559033024888483  0.7559033122769221  0.24409667985397956  1.0000
  I   I3        1.0  0.7559033000905493  0.2440966679345902  0.24409664662996403  1.0000
  I   I4        1.0  0.2440965577325879  0.7559033797502245  0.7559034695599411  1.0000
  I   I5        1.0  0.24409670064843655  0.7559033467116899  0.24409661566148544  1.0000
  I   I6        1.0  0.7559034059904707  0.24409662857447523  0.7559033926154439  1.0000
