data_image0
_chemical_formula_structural       Tl2NbF6
_chemical_formula_sum              "Tl2 Nb1 F6"
_cell_length_a       6.249971017218821
_cell_length_b       6.2499713023396
_cell_length_c       6.24997125978368
_cell_angle_alpha    60.00000439754331
_cell_angle_beta     59.9999989664565
_cell_angle_gamma    59.99999681760754

_space_group_name_H-M_alt    "P 1"
_space_group_IT_number       1

loop_
  _space_group_symop_operation_xyz
  'x, y, z'

loop_
  _atom_site_type_symbol
  _atom_site_label
  _atom_site_symmetry_multiplicity
  _atom_site_fract_x
  _atom_site_fract_y
  _atom_site_fract_z
  _atom_site_occupancy
  Tl  Tl1       1.0  0.24999993648425703  0.2499999742162711  0.2500000162228234  1.0000
  Tl  Tl2       1.0  0.7500000548731326  0.7500000676592492  0.7499998278529592  1.0000
  Nb  Nb1       1.0  0.9999999929460966  0.9999999823635951  3.6345263946039035e-08  1.0000
  F   F1        1.0  0.227390283870965  0.2273903707092106  0.7726096307445478  1.0000
  F   F2        1.0  0.772609715885186  0.7726096182570947  0.22739034918698217  1.0000
  F   F3        1.0  0.7726097584499646  0.22739024283052267  0.2273902984480465  1.0000
  F   F4        1.0  0.22739026032260873  0.7726097500549871  0.7726097612160896  1.0000
  F   F5        1.0  0.22739022596062966  0.7726097326211365  0.22739035675810407  1.0000
  F   F6        1.0  0.772609766386173  0.22739028965838526  0.7726096886218533  1.0000
