data_image0
_chemical_formula_structural       Tl2OsCl6
_chemical_formula_sum              "Tl2 Os1 Cl6"
_cell_length_a       7.109535138662827
_cell_length_b       7.109535281955965
_cell_length_c       7.109535006034897
_cell_angle_alpha    60.00000196308794
_cell_angle_beta     60.000001151215066
_cell_angle_gamma    60.000000765669874

_space_group_name_H-M_alt    "P 1"
_space_group_IT_number       1

loop_
  _space_group_symop_operation_xyz
  'x, y, z'

loop_
  _atom_site_type_symbol
  _atom_site_label
  _atom_site_symmetry_multiplicity
  _atom_site_fract_x
  _atom_site_fract_y
  _atom_site_fract_z
  _atom_site_occupancy
  Tl  Tl1       1.0  0.25000001620730733  0.2500000089735306  0.25000002022204254  1.0000
  Tl  Tl2       1.0  0.7500000100362266  0.7500000062484414  0.750000005901345  1.0000
  Os  Os1       1.0  0.9999999313236808  1.3781433490845217e-07  0.9999998486863673  1.0000
  Cl  Cl1       1.0  0.23472203569633607  0.23472204224362606  0.7652779623335985  1.0000
  Cl  Cl2       1.0  0.7652779865783238  0.7652778971804614  0.23472203053195712  1.0000
  Cl  Cl3       1.0  0.7652779904217583  0.23472198287587134  0.2347219714109934  1.0000
  Cl  Cl4       1.0  0.2347220015681345  0.7652779548255372  0.7652780796551377  1.0000
  Cl  Cl5       1.0  0.23472201623774427  0.7652779655923445  0.2347219902317511  1.0000
  Cl  Cl6       1.0  0.7652780108108669  0.2347219789997807  0.7652780623646505  1.0000
