data_image0
_chemical_formula_structural       Tl2OsBr6
_chemical_formula_sum              "Tl2 Os1 Br6"
_cell_length_a       7.417395334518297
_cell_length_b       7.417394947805411
_cell_length_c       7.417395540574157
_cell_angle_alpha    59.999997463759996
_cell_angle_beta     59.999997210595666
_cell_angle_gamma    60.00000047531224

_space_group_name_H-M_alt    "P 1"
_space_group_IT_number       1

loop_
  _space_group_symop_operation_xyz
  'x, y, z'

loop_
  _atom_site_type_symbol
  _atom_site_label
  _atom_site_symmetry_multiplicity
  _atom_site_fract_x
  _atom_site_fract_y
  _atom_site_fract_z
  _atom_site_occupancy
  Tl  Tl1       1.0  0.2499999561310483  0.2499999974794954  0.2500000360030821  1.0000
  Tl  Tl2       1.0  0.7499999978540154  0.7500000337179725  0.7499999430963216  1.0000
  Os  Os1       1.0  0.999999915479713  0.9999999966976406  3.000659260256884e-07  1.0000
  Br  Br1       1.0  0.23873081284881134  0.23873076363492238  0.7612692462488535  1.0000
  Br  Br2       1.0  0.7612692455947394  0.7612693137955704  0.2387307626629977  1.0000
  Br  Br3       1.0  0.7612692047709197  0.23873072021725042  0.2387308240256762  1.0000
  Br  Br4       1.0  0.23873093330696443  0.7612690996292727  0.7612690109654794  1.0000
  Br  Br5       1.0  0.23873088275245752  0.7612691547424899  0.23873085782192283  1.0000
  Br  Br6       1.0  0.7612690542648564  0.23873092268799695  0.7612690176648271  1.0000
