data_image0
_chemical_formula_structural       Tl2OsF6
_chemical_formula_sum              "Tl2 Os1 F6"
_cell_length_a       6.309363969251562
_cell_length_b       6.309364117585016
_cell_length_c       6.309363954082637
_cell_angle_alpha    60.000001047850695
_cell_angle_beta     60.00000096164022
_cell_angle_gamma    59.99999866622304

_space_group_name_H-M_alt    "P 1"
_space_group_IT_number       1

loop_
  _space_group_symop_operation_xyz
  'x, y, z'

loop_
  _atom_site_type_symbol
  _atom_site_label
  _atom_site_symmetry_multiplicity
  _atom_site_fract_x
  _atom_site_fract_y
  _atom_site_fract_z
  _atom_site_occupancy
  Tl  Tl1       1.0  0.25000001239697484  0.25000009483924834  0.24999984427117952  1.0000
  Tl  Tl2       1.0  0.7499999993354378  0.7500000302265452  0.7500001337663303  1.0000
  Os  Os1       1.0  8.319700444062298e-09  0.9999999475888364  3.472529811135902e-08  1.0000
  F   F1        1.0  0.2225264331262995  0.22252644849245004  0.7774735238938439  1.0000
  F   F2        1.0  0.777473501724548  0.7774735173987012  0.22252639941267502  1.0000
  F   F3        1.0  0.7774736145546983  0.22252641038251775  0.2225263670366639  1.0000
  F   F4        1.0  0.22252638109666775  0.7774735982140243  0.777473642407187  1.0000
  F   F5        1.0  0.22252645593704135  0.7774735949823501  0.22252637808951803  1.0000
  F   F6        1.0  0.7774735844147479  0.22252637284995244  0.7774736832743988  1.0000
