data_image0
_chemical_formula_structural       Tl2OsI6
_chemical_formula_sum              "Tl2 Os1 I6"
_cell_length_a       7.8394391080929156
_cell_length_b       7.8394389202024035
_cell_length_c       7.839438758698823
_cell_angle_alpha    59.99999964604455
_cell_angle_beta     60.00000135259115
_cell_angle_gamma    59.99999883741381

_space_group_name_H-M_alt    "P 1"
_space_group_IT_number       1

loop_
  _space_group_symop_operation_xyz
  'x, y, z'

loop_
  _atom_site_type_symbol
  _atom_site_label
  _atom_site_symmetry_multiplicity
  _atom_site_fract_x
  _atom_site_fract_y
  _atom_site_fract_z
  _atom_site_occupancy
  Tl  Tl1       1.0  0.2499999692338255  0.2499999780202889  0.2500000383012049  1.0000
  Tl  Tl2       1.0  0.7499999990516396  0.7500000356094827  0.7499999865641861  1.0000
  Os  Os1       1.0  0.999999995387159  3.5932587201259666e-08  9.229463876336798e-10  1.0000
  I   I1        1.0  0.2444239364478374  0.24442390822214816  0.7555760769690081  1.0000
  I   I2        1.0  0.7555760587079009  0.7555760866601866  0.24442391959853604  1.0000
  I   I3        1.0  0.7555760072571912  0.24442400793279037  0.24442392365651888  1.0000
  I   I4        1.0  0.244423999414002  0.7555760010101225  0.7555760167525568  1.0000
  I   I5        1.0  0.24442390535235545  0.7555761083235384  0.24442397445912073  1.0000
  I   I6        1.0  0.7555761264787884  0.2444238428147762  0.7555760626351751  1.0000
