data_image0
_chemical_formula_structural       Tl2PbBr6
_chemical_formula_sum              "Tl2 Pb1 Br6"
_cell_length_a       7.667844669222262
_cell_length_b       7.667844401336182
_cell_length_c       7.66784411282021
_cell_angle_alpha    60.000001942300656
_cell_angle_beta     59.99999947327556
_cell_angle_gamma    59.99999956384816

_space_group_name_H-M_alt    "P 1"
_space_group_IT_number       1

loop_
  _space_group_symop_operation_xyz
  'x, y, z'

loop_
  _atom_site_type_symbol
  _atom_site_label
  _atom_site_symmetry_multiplicity
  _atom_site_fract_x
  _atom_site_fract_y
  _atom_site_fract_z
  _atom_site_occupancy
  Tl  Tl1       1.0  0.2499999742569919  0.25000000922362775  0.25000002799021637  1.0000
  Tl  Tl2       1.0  0.7500000321092435  0.7499999797534431  0.7499999776196757  1.0000
  Pb  Pb1       1.0  7.61744343557312e-08  1.6451653434364174e-07  0.9999998366176461  1.0000
  Br  Br1       1.0  0.2619625789831153  0.26196278100740955  0.7380372747945027  1.0000
  Br  Br2       1.0  0.7380372560916134  0.738037161649473  0.26196282788391245  1.0000
  Br  Br3       1.0  0.7380373344260247  0.26196260797277965  0.2619626899393329  1.0000
  Br  Br4       1.0  0.2619627628736349  0.738037297947397  0.7380372321792918  1.0000
  Br  Br5       1.0  0.2619627268539514  0.7380373080836623  0.2619627714763659  1.0000
  Br  Br6       1.0  0.7380372510672075  0.2619626984631381  0.7380373582486258  1.0000
