data_image0
_chemical_formula_structural       Tl2PF6
_chemical_formula_sum              "Tl2 P1 F6"
_cell_length_a       6.086347838515052
_cell_length_b       6.086347954914819
_cell_length_c       6.086347990859418
_cell_angle_alpha    59.999999619563255
_cell_angle_beta     59.99999981355844
_cell_angle_gamma    59.99999917080695

_space_group_name_H-M_alt    "P 1"
_space_group_IT_number       1

loop_
  _space_group_symop_operation_xyz
  'x, y, z'

loop_
  _atom_site_type_symbol
  _atom_site_label
  _atom_site_symmetry_multiplicity
  _atom_site_fract_x
  _atom_site_fract_y
  _atom_site_fract_z
  _atom_site_occupancy
  Tl  Tl1       1.0  0.2499999513667757  0.25000000167030606  0.25000005959828775  1.0000
  Tl  Tl2       1.0  0.7499999669754144  0.749999922507353  0.7500000765289689  1.0000
  P   P1        1.0  2.713619027321973e-08  0.9999999698157689  0.9999999883798494  1.0000
  F   F1        1.0  0.1919311091410478  0.19193113402023765  0.8080689101576995  1.0000
  F   F2        1.0  0.8080688639304722  0.808068904857498  0.19193115932808916  1.0000
  F   F3        1.0  0.8080688838609474  0.1919311671913927  0.19193107478834182  1.0000
  F   F4        1.0  0.19193109543809528  0.8080689099197027  0.8080688229520582  1.0000
  F   F5        1.0  0.1919311436673754  0.8080688784972997  0.1919310820969332  1.0000
  F   F6        1.0  0.8080689508445451  0.19193112617164043  0.8080688123313416  1.0000
