data_image0
_chemical_formula_structural       Tl2PdI6
_chemical_formula_sum              "Tl2 Pd1 I6"
_cell_length_a       7.723305124642507
_cell_length_b       7.723305001272701
_cell_length_c       7.72330476751888
_cell_angle_alpha    60.000002949593345
_cell_angle_beta     59.999998263164805
_cell_angle_gamma    59.99999732997251

_space_group_name_H-M_alt    "P 1"
_space_group_IT_number       1

loop_
  _space_group_symop_operation_xyz
  'x, y, z'

loop_
  _atom_site_type_symbol
  _atom_site_label
  _atom_site_symmetry_multiplicity
  _atom_site_fract_x
  _atom_site_fract_y
  _atom_site_fract_z
  _atom_site_occupancy
  Tl  Tl1       1.0  0.24999995275931636  0.2500000080887524  0.25000002436764013  1.0000
  Tl  Tl2       1.0  0.7500000353329498  0.7499999909649077  0.7499999805095695  1.0000
  Pd  Pd1       1.0  1.7075979913486916e-09  0.9999999365688692  0.9999999156261212  1.0000
  I   I1        1.0  0.25056156319865003  0.25056139392477733  0.7494384687671671  1.0000
  I   I2        1.0  0.7494385038611013  0.7494386194008819  0.2505614532363881  1.0000
  I   I3        1.0  0.7494385217042933  0.250561490303592  0.25056163957399596  1.0000
  I   I4        1.0  0.2505613810151268  0.7494386213403251  0.749438456571896  1.0000
  I   I5        1.0  0.2505615158211226  0.7494386025779202  0.2505615516588437  1.0000
  I   I6        1.0  0.7494385379202263  0.250561325115721  0.7494385000964369  1.0000
