data_image0
_chemical_formula_structural       Tl2PdCl6
_chemical_formula_sum              "Tl2 Pd1 Cl6"
_cell_length_a       7.040454814020896
_cell_length_b       7.040454762771274
_cell_length_c       7.040454765715582
_cell_angle_alpha    60.000000000348344
_cell_angle_beta     60.000000226049345
_cell_angle_gamma    60.000000259422116

_space_group_name_H-M_alt    "P 1"
_space_group_IT_number       1

loop_
  _space_group_symop_operation_xyz
  'x, y, z'

loop_
  _atom_site_type_symbol
  _atom_site_label
  _atom_site_symmetry_multiplicity
  _atom_site_fract_x
  _atom_site_fract_y
  _atom_site_fract_z
  _atom_site_occupancy
  Tl  Tl1       1.0  0.24999999855251  0.24999999920024873  0.2500000035835044  1.0000
  Tl  Tl2       1.0  0.7500000010581832  0.7500000010799102  0.7499999992087905  1.0000
  Pd  Pd1       1.0  0.999999977138177  0.9999999947812538  1.6881010180053976e-08  1.0000
  Cl  Cl1       1.0  0.23686193000513964  0.23686190845182672  0.7631380799834477  1.0000
  Cl  Cl2       1.0  0.7631380963274246  0.7631380953074964  0.23686190486760414  1.0000
  Cl  Cl3       1.0  0.763138079586436  0.2368619121883963  0.23686192039169934  1.0000
  Cl  Cl4       1.0  0.2368619201237456  0.7631380828730165  0.7631380821194989  1.0000
  Cl  Cl5       1.0  0.23686191851730984  0.7631380827865873  0.2368619114261223  1.0000
  Cl  Cl6       1.0  0.7631380773328236  0.23686191401440762  0.7631380893045835  1.0000
