data_image0
_chemical_formula_structural       Tl2PdBr6
_chemical_formula_sum              "Tl2 Pd1 Br6"
_cell_length_a       7.310003732401434
_cell_length_b       7.310003587547511
_cell_length_c       7.310003555662561
_cell_angle_alpha    60.0000006344762
_cell_angle_beta     59.999998699360475
_cell_angle_gamma    59.99999876267532

_space_group_name_H-M_alt    "P 1"
_space_group_IT_number       1

loop_
  _space_group_symop_operation_xyz
  'x, y, z'

loop_
  _atom_site_type_symbol
  _atom_site_label
  _atom_site_symmetry_multiplicity
  _atom_site_fract_x
  _atom_site_fract_y
  _atom_site_fract_z
  _atom_site_occupancy
  Tl  Tl1       1.0  0.2499999702700666  0.25000002436894225  0.2500000095107423  1.0000
  Tl  Tl2       1.0  0.7500000160559966  0.7499999658788731  0.7500000131074426  1.0000
  Pd  Pd1       1.0  3.570694617445339e-08  1.1560513687610873e-07  1.736716890264123e-08  1.0000
  Br  Br1       1.0  0.24354822132360907  0.24354828781967752  0.7564517457938538  1.0000
  Br  Br2       1.0  0.7564517126040773  0.756451689024644  0.24354828099751094  1.0000
  Br  Br3       1.0  0.7564518307292967  0.24354818298648243  0.24354817713815546  1.0000
  Br  Br4       1.0  0.2435482627096421  0.7564516849544474  0.7564517504779028  1.0000
  Br  Br5       1.0  0.24354825046986311  0.7564517400245417  0.2435482931819718  1.0000
  Br  Br6       1.0  0.7564517052521188  0.2435483088635604  0.7564517167860993  1.0000
