data_image0
_chemical_formula_structural       Tl2PBr6
_chemical_formula_sum              "Tl2 P1 Br6"
_cell_length_a       7.407770395286184
_cell_length_b       7.407770287242349
_cell_length_c       7.407770094672228
_cell_angle_alpha    59.99999919718307
_cell_angle_beta     59.999997465187896
_cell_angle_gamma    60.00000293544892

_space_group_name_H-M_alt    "P 1"
_space_group_IT_number       1

loop_
  _space_group_symop_operation_xyz
  'x, y, z'

loop_
  _atom_site_type_symbol
  _atom_site_label
  _atom_site_symmetry_multiplicity
  _atom_site_fract_x
  _atom_site_fract_y
  _atom_site_fract_z
  _atom_site_occupancy
  Tl  Tl1       1.0  0.2499999822714739  0.2499999961566029  0.25000003442684804  1.0000
  Tl  Tl2       1.0  0.7500000367502735  0.7500000132696819  0.749999944667636  1.0000
  P   P1        1.0  0.999999958210338  1.206926916787528e-07  0.9999999659482205  1.0000
  Br  Br1       1.0  0.24445438395176258  0.24445436954744698  0.7555456380335368  1.0000
  Br  Br2       1.0  0.7555454977578383  0.7555455654792261  0.24445440236901256  1.0000
  Br  Br3       1.0  0.7555455784509364  0.24445444505204034  0.2444545019232375  1.0000
  Br  Br4       1.0  0.24445450841921987  0.7555454122683871  0.7555455341492434  1.0000
  Br  Br5       1.0  0.2444546361077578  0.7555454772404255  0.24445455599974059  1.0000
  Br  Br6       1.0  0.7555454237877667  0.2444545685590013  0.7555454533179112  1.0000
