data_image0
_chemical_formula_structural       Tl2PtI6
_chemical_formula_sum              "Tl2 Pt1 I6"
_cell_length_a       7.802311370082978
_cell_length_b       7.802311452035535
_cell_length_c       7.802311117290949
_cell_angle_alpha    59.99999890461676
_cell_angle_beta     60.00000231625941
_cell_angle_gamma    59.99999379755077

_space_group_name_H-M_alt    "P 1"
_space_group_IT_number       1

loop_
  _space_group_symop_operation_xyz
  'x, y, z'

loop_
  _atom_site_type_symbol
  _atom_site_label
  _atom_site_symmetry_multiplicity
  _atom_site_fract_x
  _atom_site_fract_y
  _atom_site_fract_z
  _atom_site_occupancy
  Tl  Tl1       1.0  0.24999997144645603  0.2500000009060638  0.250000171806549  1.0000
  Tl  Tl2       1.0  0.7500000225550136  0.7499999932998824  0.7499997944250999  1.0000
  Pt  Pt1       1.0  1.0890040652250639e-07  1.616811933332631e-07  5.54248479285819e-07  1.0000
  I   I1        1.0  0.2462258295424934  0.2462261815506564  0.7537739552686463  1.0000
  I   I2        1.0  0.7537739658050743  0.7537736494043591  0.24622619063374865  1.0000
  I   I3        1.0  0.7537739430148541  0.24622611026955005  0.2462259301645304  1.0000
  I   I4        1.0  0.2462263846673222  0.7537735888289053  0.7537737296860973  1.0000
  I   I5        1.0  0.24622583216734967  0.7537740373571984  0.24622614732752762  1.0000
  I   I6        1.0  0.7537739477443604  0.24622629276898336  0.7537735247246572  1.0000
