data_image0
_chemical_formula_structural       Tl2PbCl6
_chemical_formula_sum              "Tl2 Pb1 Cl6"
_cell_length_a       7.3750620172651935
_cell_length_b       7.375062149551374
_cell_length_c       7.375062180568012
_cell_angle_alpha    59.999999480294406
_cell_angle_beta     59.999999578861704
_cell_angle_gamma    59.99999886043514

_space_group_name_H-M_alt    "P 1"
_space_group_IT_number       1

loop_
  _space_group_symop_operation_xyz
  'x, y, z'

loop_
  _atom_site_type_symbol
  _atom_site_label
  _atom_site_symmetry_multiplicity
  _atom_site_fract_x
  _atom_site_fract_y
  _atom_site_fract_z
  _atom_site_occupancy
  Tl  Tl1       1.0  0.2500000309774071  0.2500000013730489  0.24999997687581443  1.0000
  Tl  Tl2       1.0  0.7500000071832875  0.7500000124224326  0.7500000154515732  1.0000
  Pb  Pb1       1.0  2.4703611039656444e-08  0.9999999634655461  0.9999998228661175  1.0000
  Cl  Cl1       1.0  0.2478914878255382  0.24789148567261984  0.7521084791461425  1.0000
  Cl  Cl2       1.0  0.7521084178219918  0.7521084982310374  0.24789149133376076  1.0000
  Cl  Cl3       1.0  0.7521083691210305  0.24789163351441634  0.24789161542358307  1.0000
  Cl  Cl4       1.0  0.24789150337574237  0.7521085015090301  0.7521084818329493  1.0000
  Cl  Cl5       1.0  0.24789158823456048  0.752108411280817  0.24789161705882956  1.0000
  Cl  Cl6       1.0  0.752108567322528  0.24789149457195545  0.7521084952864273  1.0000
