data_image0
_chemical_formula_structural       Tl2PI6
_chemical_formula_sum              "Tl2 P1 I6"
_cell_length_a       7.870132440349435
_cell_length_b       7.870132367359984
_cell_length_c       7.870132088565272
_cell_angle_alpha    60.00000185187766
_cell_angle_beta     60.000000826237304
_cell_angle_gamma    60.00000163073595

_space_group_name_H-M_alt    "P 1"
_space_group_IT_number       1

loop_
  _space_group_symop_operation_xyz
  'x, y, z'

loop_
  _atom_site_type_symbol
  _atom_site_label
  _atom_site_symmetry_multiplicity
  _atom_site_fract_x
  _atom_site_fract_y
  _atom_site_fract_z
  _atom_site_occupancy
  Tl  Tl1       1.0  0.25000003227030776  0.24999999982830404  0.2499999631287753  1.0000
  Tl  Tl2       1.0  0.7499999937513941  0.750000018159233  0.7499999760508652  1.0000
  P   P1        1.0  1.793178016902469e-08  3.4236256034743576e-08  0.9999999701041019  1.0000
  I   I1        1.0  0.250140478806629  0.25014048561186913  0.7498595180253526  1.0000
  I   I2        1.0  0.7498594838155711  0.7498594716841233  0.25014053148362597  1.0000
  I   I3        1.0  0.7498595406420624  0.25014049026361007  0.25014047197288636  1.0000
  I   I4        1.0  0.25014048815129497  0.7498595106057994  0.7498595226638048  1.0000
  I   I5        1.0  0.2501404758070892  0.7498594650604399  0.2501405105884052  1.0000
  I   I6        1.0  0.7498594859403789  0.25014051246606744  0.749859541948949  1.0000
