data_image0
_chemical_formula_structural       Tl2PtCl6
_chemical_formula_sum              "Tl2 Pt1 Cl6"
_cell_length_a       7.10705298613868
_cell_length_b       7.107053267008011
_cell_length_c       7.1070536128685164
_cell_angle_alpha    59.99999853246102
_cell_angle_beta     59.99999801828526
_cell_angle_gamma    59.99999872668013

_space_group_name_H-M_alt    "P 1"
_space_group_IT_number       1

loop_
  _space_group_symop_operation_xyz
  'x, y, z'

loop_
  _atom_site_type_symbol
  _atom_site_label
  _atom_site_symmetry_multiplicity
  _atom_site_fract_x
  _atom_site_fract_y
  _atom_site_fract_z
  _atom_site_occupancy
  Tl  Tl1       1.0  0.24999999825824856  0.24999998536317608  0.25000000369184755  1.0000
  Tl  Tl2       1.0  0.7499999983676914  0.7500000232974819  0.7499999616045646  1.0000
  Pt  Pt1       1.0  1.1832036693571088e-08  3.2742336011955e-08  8.886998845934567e-08  1.0000
  Cl  Cl1       1.0  0.23383751732578578  0.23383759531245069  0.7661625084991158  1.0000
  Cl  Cl2       1.0  0.7661624410952079  0.7661623719894666  0.23383766823958652  1.0000
  Cl  Cl3       1.0  0.7661625053431327  0.2338375802769596  0.233837625283042  1.0000
  Cl  Cl4       1.0  0.23383759413325292  0.7661624025344845  0.7661622241248484  1.0000
  Cl  Cl5       1.0  0.23383751498911998  0.7661624104506584  0.2338377092176702  1.0000
  Cl  Cl6       1.0  0.7661624156960831  0.23383759131687698  0.7661622108866063  1.0000
