data_image0
_chemical_formula_structural       Tl2PtF6
_chemical_formula_sum              "Tl2 Pt1 F6"
_cell_length_a       6.239350582183121
_cell_length_b       6.2393506303126225
_cell_length_c       6.23935026044256
_cell_angle_alpha    60.00000084689948
_cell_angle_beta     60.00000184044956
_cell_angle_gamma    60.00000094426515

_space_group_name_H-M_alt    "P 1"
_space_group_IT_number       1

loop_
  _space_group_symop_operation_xyz
  'x, y, z'

loop_
  _atom_site_type_symbol
  _atom_site_label
  _atom_site_symmetry_multiplicity
  _atom_site_fract_x
  _atom_site_fract_y
  _atom_site_fract_z
  _atom_site_occupancy
  Tl  Tl1       1.0  0.2500000231228374  0.2499999985570099  0.2499999696440701  1.0000
  Tl  Tl2       1.0  0.7500000840423832  0.7500000349297572  0.7499999604997292  1.0000
  Pt  Pt1       1.0  3.585505571735389e-16  0.9999999999999992  6.250650871710009e-08  1.0000
  F   F1        1.0  0.22379713672202203  0.2237970716455597  0.7762028299794932  1.0000
  F   F2        1.0  0.7762028960057031  0.7762029186566074  0.22379704838691578  1.0000
  F   F3        1.0  0.7762028275156297  0.22379713666700626  0.22379707604198207  1.0000
  F   F4        1.0  0.2237970302383613  0.7762029066344422  0.7762030123656346  1.0000
  F   F5        1.0  0.2237970968724749  0.7762028765962863  0.22379704535024467  1.0000
  F   F6        1.0  0.7762029019273253  0.22379704892897753  0.7762029833406312  1.0000
