data_image0
_chemical_formula_structural       Tl2PbI6
_chemical_formula_sum              "Tl2 Pb1 I6"
_cell_length_a       8.274823443040226
_cell_length_b       8.274823991302387
_cell_length_c       8.274823337300875
_cell_angle_alpha    59.99999582480673
_cell_angle_beta     60.00000265373833
_cell_angle_gamma    59.99999781657352

_space_group_name_H-M_alt    "P 1"
_space_group_IT_number       1

loop_
  _space_group_symop_operation_xyz
  'x, y, z'

loop_
  _atom_site_type_symbol
  _atom_site_label
  _atom_site_symmetry_multiplicity
  _atom_site_fract_x
  _atom_site_fract_y
  _atom_site_fract_z
  _atom_site_occupancy
  Tl  Tl1       1.0  0.25000003187245107  0.2500000115564725  0.24999992512174163  1.0000
  Tl  Tl2       1.0  0.7500000060288229  0.7499999517845934  0.7500001214261831  1.0000
  Pb  Pb1       1.0  0.9999999425330877  1.3320775237844665e-08  0.9999999966948816  1.0000
  I   I1        1.0  0.2691901038126732  0.2691901790308693  0.7308098556727597  1.0000
  I   I2        1.0  0.7308098874466016  0.7308098153920048  0.2691901285631273  1.0000
  I   I3        1.0  0.7308098688242803  0.269190153189049  0.2691901611838689  1.0000
  I   I4        1.0  0.2691901587018666  0.7308098663952809  0.7308098152990687  1.0000
  I   I5        1.0  0.26919031340272853  0.7308100242243015  0.2691901120909024  1.0000
  I   I6        1.0  0.7308096868773115  0.2691899849994267  0.7308099001141798  1.0000
