data_image0
_chemical_formula_structural       Tl2PtBr6
_chemical_formula_sum              "Tl2 Pt1 Br6"
_cell_length_a       7.344767469265978
_cell_length_b       7.3447672618106425
_cell_length_c       7.3447674127548135
_cell_angle_alpha    60.00000101468456
_cell_angle_beta     59.99999834715894
_cell_angle_gamma    60.000000503613464

_space_group_name_H-M_alt    "P 1"
_space_group_IT_number       1

loop_
  _space_group_symop_operation_xyz
  'x, y, z'

loop_
  _atom_site_type_symbol
  _atom_site_label
  _atom_site_symmetry_multiplicity
  _atom_site_fract_x
  _atom_site_fract_y
  _atom_site_fract_z
  _atom_site_occupancy
  Tl  Tl1       1.0  0.2499999892879826  0.24999998887190866  0.25000001237264746  1.0000
  Tl  Tl2       1.0  0.7499999819804872  0.7500000233109533  0.7499999935429782  1.0000
  Pt  Pt1       1.0  0.9999999793714416  1.0005040803445775e-08  3.662656976118514e-08  1.0000
  Br  Br1       1.0  0.2406520804794831  0.24065211623510793  0.7593479104111234  1.0000
  Br  Br2       1.0  0.7593478994126183  0.7593478559275942  0.24065213162546842  1.0000
  Br  Br3       1.0  0.7593479488977645  0.24065208204621188  0.2406520278852486  1.0000
  Br  Br4       1.0  0.24065208794013315  0.7593479268016368  0.7593479155983583  1.0000
  Br  Br5       1.0  0.24065213782682307  0.7593478730791662  0.24065210239974233  1.0000
  Br  Br6       1.0  0.7593479003134777  0.24065212242862927  0.7593478688869054  1.0000
