data_image0
_chemical_formula_structural       Tl2RuI6
_chemical_formula_sum              "Tl2 Ru1 I6"
_cell_length_a       7.761773653047097
_cell_length_b       7.761774171434974
_cell_length_c       7.761773904418078
_cell_angle_alpha    59.999998458944155
_cell_angle_beta     59.99999959921791
_cell_angle_gamma    59.999997745638254

_space_group_name_H-M_alt    "P 1"
_space_group_IT_number       1

loop_
  _space_group_symop_operation_xyz
  'x, y, z'

loop_
  _atom_site_type_symbol
  _atom_site_label
  _atom_site_symmetry_multiplicity
  _atom_site_fract_x
  _atom_site_fract_y
  _atom_site_fract_z
  _atom_site_occupancy
  Tl  Tl1       1.0  0.2500000129501714  0.2500000080419786  0.24999995192697866  1.0000
  Tl  Tl2       1.0  0.7499999685842501  0.7500000162363397  0.7500000288488549  1.0000
  Ru  Ru1       1.0  0.9999998896876848  0.99999993372742  0.9999999646093816  1.0000
  I   I1        1.0  0.24666398732985254  0.24666397954976077  0.7533360470326408  1.0000
  I   I2        1.0  0.7533361599811469  0.753336140981595  0.24666383751424625  1.0000
  I   I3        1.0  0.7533360721637129  0.24666384559016646  0.24666401024080145  1.0000
  I   I4        1.0  0.24666381387322434  0.7533362197140401  0.7533360518821705  1.0000
  I   I5        1.0  0.2466639611914842  0.7533360754379266  0.24666387871210663  1.0000
  I   I6        1.0  0.7533361309596048  0.2466637910485108  0.7533362325856553  1.0000
