data_image0
_chemical_formula_structural       Tl2ReBr6
_chemical_formula_sum              "Tl2 Re1 Br6"
_cell_length_a       7.445655399460585
_cell_length_b       7.445655445284375
_cell_length_c       7.4456555959510045
_cell_angle_alpha    59.999999323646136
_cell_angle_beta     60.00000165390866
_cell_angle_gamma    60.0000019540404

_space_group_name_H-M_alt    "P 1"
_space_group_IT_number       1

loop_
  _space_group_symop_operation_xyz
  'x, y, z'

loop_
  _atom_site_type_symbol
  _atom_site_label
  _atom_site_symmetry_multiplicity
  _atom_site_fract_x
  _atom_site_fract_y
  _atom_site_fract_z
  _atom_site_occupancy
  Tl  Tl1       1.0  0.2499999954318284  0.2500000103496204  0.24999999811303972  1.0000
  Tl  Tl2       1.0  0.7500000061123635  0.7499999948607953  0.7500000213276246  1.0000
  Re  Re1       1.0  1.0823078217303748e-07  0.9999999358484305  0.9999999752742657  1.0000
  Br  Br1       1.0  0.23965842121577843  0.23965840839479274  0.7603415634413283  1.0000
  Br  Br2       1.0  0.7603415197677974  0.7603415737868526  0.23965844810062015  1.0000
  Br  Br3       1.0  0.7603414621263092  0.2396585110285861  0.2396585467843426  1.0000
  Br  Br4       1.0  0.23965850592568555  0.760341515565686  0.7603414854258168  1.0000
  Br  Br5       1.0  0.23965844288857124  0.7603415765055418  0.23965842505158716  1.0000
  Br  Br6       1.0  0.7603415294396398  0.23965846982767613  0.7603415427714532  1.0000
