data_image0
_chemical_formula_structural       Tl2ReI6
_chemical_formula_sum              "Tl2 Re1 I6"
_cell_length_a       7.965339469763142
_cell_length_b       7.965339414551931
_cell_length_c       7.965339357550325
_cell_angle_alpha    60.00000147021939
_cell_angle_beta     59.999999764208454
_cell_angle_gamma    59.99999900896437

_space_group_name_H-M_alt    "P 1"
_space_group_IT_number       1

loop_
  _space_group_symop_operation_xyz
  'x, y, z'

loop_
  _atom_site_type_symbol
  _atom_site_label
  _atom_site_symmetry_multiplicity
  _atom_site_fract_x
  _atom_site_fract_y
  _atom_site_fract_z
  _atom_site_occupancy
  Tl  Tl1       1.0  0.25000003892395206  0.2500000659819783  0.24999984199302167  1.0000
  Tl  Tl2       1.0  0.749999987054119  0.7499999304047964  0.750000176566646  1.0000
  Re  Re1       1.0  0.9999999410188593  0.9999999507970284  0.999999885863191  1.0000
  I   I1        1.0  0.24275450968397544  0.24275458193793267  0.7572454630046657  1.0000
  I   I2        1.0  0.7572455192511695  0.7572454621142184  0.24275449258059842  1.0000
  I   I3        1.0  0.7572454625648497  0.24275457002650838  0.24275454449096026  1.0000
  I   I4        1.0  0.24275446231660225  0.7572455078526877  0.7572455227894256  1.0000
  I   I5        1.0  0.24275452827398278  0.7572454470158978  0.24275455806875032  1.0000
  I   I6        1.0  0.7572455500977674  0.24275448786716444  0.757245507730869  1.0000
