data_image0
_chemical_formula_structural       Tl2RuF6
_chemical_formula_sum              "Tl2 Ru1 F6"
_cell_length_a       6.348612026817604
_cell_length_b       6.348612272885389
_cell_length_c       6.348612213974618
_cell_angle_alpha    60.000002525505266
_cell_angle_beta     60.0000018648184
_cell_angle_gamma    60.000000730706304

_space_group_name_H-M_alt    "P 1"
_space_group_IT_number       1

loop_
  _space_group_symop_operation_xyz
  'x, y, z'

loop_
  _atom_site_type_symbol
  _atom_site_label
  _atom_site_symmetry_multiplicity
  _atom_site_fract_x
  _atom_site_fract_y
  _atom_site_fract_z
  _atom_site_occupancy
  Tl  Tl1       1.0  0.2500000850091974  0.25000001907712516  0.24999992176050106  1.0000
  Tl  Tl2       1.0  0.7499999487686414  0.7499999665611615  0.7500000677058057  1.0000
  Ru  Ru1       1.0  0.9999999819410228  0.999999961416927  0.9999999779163073  1.0000
  F   F1        1.0  0.2185344678531848  0.218534556914232  0.7814655173968749  1.0000
  F   F2        1.0  0.7814654296042871  0.7814654557322084  0.21853457240481036  1.0000
  F   F3        1.0  0.7814654872093352  0.21853457039443025  0.2185344707073393  1.0000
  F   F4        1.0  0.2185345078940284  0.781465503984924  0.7814654890002295  1.0000
  F   F5        1.0  0.21853456158442192  0.781465474647713  0.218534462997774  1.0000
  F   F6        1.0  0.7814655212102525  0.21853448398242178  0.7814655028630121  1.0000
