data_image0
_chemical_formula_structural       Tl2RhBr6
_chemical_formula_sum              "Tl2 Rh1 Br6"
_cell_length_a       7.36426879638354
_cell_length_b       7.364268850964024
_cell_length_c       7.364269003511911
_cell_angle_alpha    59.99999889877545
_cell_angle_beta     59.99999922383298
_cell_angle_gamma    59.99999991458983

_space_group_name_H-M_alt    "P 1"
_space_group_IT_number       1

loop_
  _space_group_symop_operation_xyz
  'x, y, z'

loop_
  _atom_site_type_symbol
  _atom_site_label
  _atom_site_symmetry_multiplicity
  _atom_site_fract_x
  _atom_site_fract_y
  _atom_site_fract_z
  _atom_site_occupancy
  Tl  Tl1       1.0  0.2499999625492853  0.24999998684069671  0.24999999877176002  1.0000
  Tl  Tl2       1.0  0.750000016474689  0.7500000020993639  0.7500000115984209  1.0000
  Rh  Rh1       1.0  8.108908449537114e-09  1.3304727451131481e-08  1.3735526520750958e-08  1.0000
  Br  Br1       1.0  0.24001763274550275  0.24001758011405808  0.7599824021238841  1.0000
  Br  Br2       1.0  0.7599824302997622  0.7599824154783666  0.24001756562528534  1.0000
  Br  Br3       1.0  0.7599822965868455  0.24001769237455936  0.24001764044924698  1.0000
  Br  Br4       1.0  0.24001766092837945  0.7599823281642288  0.7599823784550248  1.0000
  Br  Br5       1.0  0.2400176758952643  0.7599823325824062  0.24001761894497217  1.0000
  Br  Br6       1.0  0.759982310509346  0.24001765303147246  0.7599823798926253  1.0000
