data_image0
_chemical_formula_structural       Tl2RhI6
_chemical_formula_sum              "Tl2 Rh1 I6"
_cell_length_a       7.794254784952555
_cell_length_b       7.794254575218418
_cell_length_c       7.7942548403950545
_cell_angle_alpha    59.99999873074928
_cell_angle_beta     59.99999832616121
_cell_angle_gamma    60.00000200474623

_space_group_name_H-M_alt    "P 1"
_space_group_IT_number       1

loop_
  _space_group_symop_operation_xyz
  'x, y, z'

loop_
  _atom_site_type_symbol
  _atom_site_label
  _atom_site_symmetry_multiplicity
  _atom_site_fract_x
  _atom_site_fract_y
  _atom_site_fract_z
  _atom_site_occupancy
  Tl  Tl1       1.0  0.24999997924960918  0.2500000698546187  0.25000004556369027  1.0000
  Tl  Tl2       1.0  0.7500000044795874  0.749999947149547  0.7499999612546363  1.0000
  Rh  Rh1       1.0  0.9999999679467112  0.9999999717158227  3.0601293463098685e-07  1.0000
  I   I1        1.0  0.244121903599452  0.24412207739907701  0.7558780398886055  1.0000
  I   I2        1.0  0.7558781315629254  0.7558779097495705  0.24412200232875553  1.0000
  I   I3        1.0  0.7558781131572806  0.24412197023032922  0.24412194592999695  1.0000
  I   I4        1.0  0.24412208339881464  0.7558778660693787  0.7558778818865791  1.0000
  I   I5        1.0  0.2441219760573061  0.7558780636824168  0.24412195351646246  1.0000
  I   I6        1.0  0.7558778407707692  0.2441221340262073  0.755877865497721  1.0000
