data_image0
_chemical_formula_structural       Tl2ReCl6
_chemical_formula_sum              "Tl2 Re1 Cl6"
_cell_length_a       7.1103347684237965
_cell_length_b       7.1103349854371665
_cell_length_c       7.110334431354421
_cell_angle_alpha    60.000001496142666
_cell_angle_beta     60.00000246184828
_cell_angle_gamma    59.99999492997356

_space_group_name_H-M_alt    "P 1"
_space_group_IT_number       1

loop_
  _space_group_symop_operation_xyz
  'x, y, z'

loop_
  _atom_site_type_symbol
  _atom_site_label
  _atom_site_symmetry_multiplicity
  _atom_site_fract_x
  _atom_site_fract_y
  _atom_site_fract_z
  _atom_site_occupancy
  Tl  Tl1       1.0  0.2500000214976235  0.24999999205590115  0.25000001738493843  1.0000
  Tl  Tl2       1.0  0.7499999896746078  0.7500000106174202  0.7499999752972386  1.0000
  Re  Re1       1.0  2.843419225435991e-07  7.751182562519444e-08  0.9999997881322478  1.0000
  Cl  Cl1       1.0  0.236492064942527  0.23649208011968906  0.7635079170976489  1.0000
  Cl  Cl2       1.0  0.7635077678740028  0.7635077658074669  0.23649222907142586  1.0000
  Cl  Cl3       1.0  0.7635081140763261  0.23649186315283935  0.2364919082824519  1.0000
  Cl  Cl4       1.0  0.23649181128695934  0.7635081825826255  0.7635081170243543  1.0000
  Cl  Cl5       1.0  0.23649182817022021  0.7635081615422549  0.23649191948848433  1.0000
  Cl  Cl6       1.0  0.7635080889746796  0.2364918893606673  0.7635081003117679  1.0000
