data_image0
_chemical_formula_structural       Tl2RuBr6
_chemical_formula_sum              "Tl2 Ru1 Br6"
_cell_length_a       7.361681593121249
_cell_length_b       7.361681495449728
_cell_length_c       7.361681586332497
_cell_angle_alpha    60.00000137706178
_cell_angle_beta     59.99999739311827
_cell_angle_gamma    59.99999961168312

_space_group_name_H-M_alt    "P 1"
_space_group_IT_number       1

loop_
  _space_group_symop_operation_xyz
  'x, y, z'

loop_
  _atom_site_type_symbol
  _atom_site_label
  _atom_site_symmetry_multiplicity
  _atom_site_fract_x
  _atom_site_fract_y
  _atom_site_fract_z
  _atom_site_occupancy
  Tl  Tl1       1.0  0.2499999980363519  0.2500000245142594  0.25000000298557873  1.0000
  Tl  Tl2       1.0  0.7499999670336395  0.7499999853679796  0.7500000095296606  1.0000
  Ru  Ru1       1.0  0.9999999190699094  2.1627782146509754e-08  7.447787083081685e-08  1.0000
  Br  Br1       1.0  0.2403844108157646  0.2403844349708895  0.7596155611148931  1.0000
  Br  Br2       1.0  0.7596156578559168  0.7596155982028037  0.2403843512773694  1.0000
  Br  Br3       1.0  0.759615652888644  0.24038435975614486  0.24038433501297762  1.0000
  Br  Br4       1.0  0.2403843519654365  0.7596156201799372  0.7596156902423034  1.0000
  Br  Br5       1.0  0.2403844795554284  0.7596155046753843  0.24038444807866438  1.0000
  Br  Br6       1.0  0.759615556590396  0.2403844519692408  0.7596155446503807  1.0000
