data_image0
_chemical_formula_structural       Tl2RhCl6
_chemical_formula_sum              "Tl2 Rh1 Cl6"
_cell_length_a       7.123077363270349
_cell_length_b       7.123077431760075
_cell_length_c       7.123077173086949
_cell_angle_alpha    60.00000004840556
_cell_angle_beta     60.00000134389057
_cell_angle_gamma    60.00000102922974

_space_group_name_H-M_alt    "P 1"
_space_group_IT_number       1

loop_
  _space_group_symop_operation_xyz
  'x, y, z'

loop_
  _atom_site_type_symbol
  _atom_site_label
  _atom_site_symmetry_multiplicity
  _atom_site_fract_x
  _atom_site_fract_y
  _atom_site_fract_z
  _atom_site_occupancy
  Tl  Tl1       1.0  0.24999997036933216  0.2500000157333092  0.24999999489500316  1.0000
  Tl  Tl2       1.0  0.749999998008037  0.749999995617804  0.7500000175660069  1.0000
  Rh  Rh1       1.0  0.9999999339940682  3.2668679792914e-08  0.9999998832992997  1.0000
  Cl  Cl1       1.0  0.23383751393144603  0.23383766794449254  0.7661623793276228  1.0000
  Cl  Cl2       1.0  0.7661624947928687  0.7661623244931768  0.23383754941447954  1.0000
  Cl  Cl3       1.0  0.7661623923879156  0.23383768423696766  0.233837580945366  1.0000
  Cl  Cl4       1.0  0.2338375852242014  0.7661623529052057  0.7661625263137513  1.0000
  Cl  Cl5       1.0  0.2338376260882772  0.7661623590695803  0.2338375794747462  1.0000
  Cl  Cl6       1.0  0.7661624796558347  0.23383756115311397  0.7661625151586763  1.0000
