data_image0
_chemical_formula_structural       Tl2ReF6
_chemical_formula_sum              "Tl2 Re1 F6"
_cell_length_a       6.2957901761596275
_cell_length_b       6.295789880182345
_cell_length_c       6.295789979402144
_cell_angle_alpha    60.000000311992764
_cell_angle_beta     60.00000044908494
_cell_angle_gamma    60.00000041364936

_space_group_name_H-M_alt    "P 1"
_space_group_IT_number       1

loop_
  _space_group_symop_operation_xyz
  'x, y, z'

loop_
  _atom_site_type_symbol
  _atom_site_label
  _atom_site_symmetry_multiplicity
  _atom_site_fract_x
  _atom_site_fract_y
  _atom_site_fract_z
  _atom_site_occupancy
  Tl  Tl1       1.0  0.24999992630035764  0.2500000243495343  0.2500000061318591  1.0000
  Tl  Tl2       1.0  0.7500000780061257  0.7500000010710466  0.7500000573146771  1.0000
  Re  Re1       1.0  3.9720480856993514e-08  0.9999999688745683  0.9999999766421188  1.0000
  F   F1        1.0  0.22221088331327374  0.2222109388411126  0.7777890783166995  1.0000
  F   F2        1.0  0.7777890760120797  0.7777890729620902  0.2222109191273096  1.0000
  F   F3        1.0  0.7777890786494566  0.2222109747225239  0.2222109161896749  1.0000
  F   F4        1.0  0.222210908613085  0.7777890468073768  0.7777890687758432  1.0000
  F   F5        1.0  0.22221094565063534  0.7777890500581133  0.22221094303355896  1.0000
  F   F6        1.0  0.7777890750895228  0.22221091505694207  0.7777890327518538  1.0000
