data_image0
_chemical_formula_structural       Tl2RuCl6
_chemical_formula_sum              "Tl2 Ru1 Cl6"
_cell_length_a       7.123464785702346
_cell_length_b       7.123465088241217
_cell_length_c       7.123464561366337
_cell_angle_alpha    59.99999953893771
_cell_angle_beta     59.99999934593914
_cell_angle_gamma    59.99999777214684

_space_group_name_H-M_alt    "P 1"
_space_group_IT_number       1

loop_
  _space_group_symop_operation_xyz
  'x, y, z'

loop_
  _atom_site_type_symbol
  _atom_site_label
  _atom_site_symmetry_multiplicity
  _atom_site_fract_x
  _atom_site_fract_y
  _atom_site_fract_z
  _atom_site_occupancy
  Tl  Tl1       1.0  0.2500000049068997  0.2500000362362384  0.2499999860765757  1.0000
  Tl  Tl2       1.0  0.7500000077480241  0.7499999642866283  0.7499999988318289  1.0000
  Ru  Ru1       1.0  0.9999999845907913  9.972001561219665e-08  0.9999998792311621  1.0000
  Cl  Cl1       1.0  0.23385213289709011  0.23385214164456092  0.7661478515936779  1.0000
  Cl  Cl2       1.0  0.766147897883619  0.7661478434045105  0.23385212216205298  1.0000
  Cl  Cl3       1.0  0.7661478837909855  0.23385212792081667  0.23385206828763924  1.0000
  Cl  Cl4       1.0  0.23385203518970676  0.7661479396551637  0.7661479860837761  1.0000
  Cl  Cl5       1.0  0.2338520931170481  0.7661478661053577  0.2338521008874771  1.0000
  Cl  Cl6       1.0  0.7661479539409608  0.23385200203059328  0.7661479737233731  1.0000
