data_image0
_chemical_formula_structural       Tl2SnCl6
_chemical_formula_sum              "Tl2 Sn1 Cl6"
_cell_length_a       7.314622373869322
_cell_length_b       7.314622130418173
_cell_length_c       7.314622506277438
_cell_angle_alpha    59.99999700767456
_cell_angle_beta     59.99999881732022
_cell_angle_gamma    59.99999930717557

_space_group_name_H-M_alt    "P 1"
_space_group_IT_number       1

loop_
  _space_group_symop_operation_xyz
  'x, y, z'

loop_
  _atom_site_type_symbol
  _atom_site_label
  _atom_site_symmetry_multiplicity
  _atom_site_fract_x
  _atom_site_fract_y
  _atom_site_fract_z
  _atom_site_occupancy
  Tl  Tl1       1.0  0.2500000129069641  0.25000002426241696  0.24999997744096444  1.0000
  Tl  Tl2       1.0  0.7499999910285596  0.7500000074864722  0.7499999901865747  1.0000
  Sn  Sn1       1.0  1.081586696582758e-07  4.0185091907507385e-08  2.498366366223128e-07  1.0000
  Cl  Cl1       1.0  0.23913034846125772  0.23913028478657786  0.7608696955322729  1.0000
  Cl  Cl2       1.0  0.7608695370341529  0.7608695008286079  0.2391304912945401  1.0000
  Cl  Cl3       1.0  0.7608696866441587  0.23913032232225656  0.23913039270618366  1.0000
  Cl  Cl4       1.0  0.23913051211826727  0.7608695369656087  0.7608694735081968  1.0000
  Cl  Cl5       1.0  0.23913027998946895  0.7608697879185847  0.23913026747662056  1.0000
  Cl  Cl6       1.0  0.7608695329767473  0.23913048996400482  0.7608694633986643  1.0000
