data_image0
_chemical_formula_structural       Tl2SiI6
_chemical_formula_sum              "Tl2 Si1 I6"
_cell_length_a       7.921538491098328
_cell_length_b       7.921538081917165
_cell_length_c       7.921538671315915
_cell_angle_alpha    59.99999881428867
_cell_angle_beta     59.99999756290018
_cell_angle_gamma    60.00000022659122

_space_group_name_H-M_alt    "P 1"
_space_group_IT_number       1

loop_
  _space_group_symop_operation_xyz
  'x, y, z'

loop_
  _atom_site_type_symbol
  _atom_site_label
  _atom_site_symmetry_multiplicity
  _atom_site_fract_x
  _atom_site_fract_y
  _atom_site_fract_z
  _atom_site_occupancy
  Tl  Tl1       1.0  0.2500000512243038  0.24999999228265912  0.24999995908627162  1.0000
  Tl  Tl2       1.0  0.7499999283223528  0.7499999969472055  0.7500000379540097  1.0000
  Si  Si1       1.0  7.116066454643513e-08  1.391485496865134e-08  0.9999999625117635  1.0000
  I   I1        1.0  0.24249227799637424  0.24249224812043457  0.7575077461250664  1.0000
  I   I2        1.0  0.7575077672768586  0.7575078106836983  0.24249222239860374  1.0000
  I   I3        1.0  0.7575078024546863  0.2424921590434688  0.24249222514304702  1.0000
  I   I4        1.0  0.2424921455537199  0.7575078023566888  0.7575078078931182  1.0000
  I   I5        1.0  0.24249214139446074  0.7575078148226048  0.24249219764639904  1.0000
  I   I6        1.0  0.7575078172445918  0.2424921496697431  0.7575078449393007  1.0000
