data_image0
_chemical_formula_structural       Tl2SI6
_chemical_formula_sum              "Tl2 S1 I6"
_cell_length_a       7.718345505514284
_cell_length_b       7.718345629152456
_cell_length_c       7.7183451474512665
_cell_angle_alpha    60.00000239340155
_cell_angle_beta     60.000001249147545
_cell_angle_gamma    59.99999954908422

_space_group_name_H-M_alt    "P 1"
_space_group_IT_number       1

loop_
  _space_group_symop_operation_xyz
  'x, y, z'

loop_
  _atom_site_type_symbol
  _atom_site_label
  _atom_site_symmetry_multiplicity
  _atom_site_fract_x
  _atom_site_fract_y
  _atom_site_fract_z
  _atom_site_occupancy
  Tl  Tl1       1.0  0.2500000809956605  0.24999992261473858  0.24999995115205056  1.0000
  Tl  Tl2       1.0  0.749999922117206  0.7500000931376305  0.7500000753856445  1.0000
  S   S1        1.0  5.603569353110508e-08  0.9999998857506074  4.465422330068169e-08  1.0000
  I   I1        1.0  0.2632543232366544  0.263254144159372  0.7367457654230122  1.0000
  I   I2        1.0  0.7367456354174228  0.7367459017421427  0.26325418664579076  1.0000
  I   I3        1.0  0.7367458083328734  0.2632542950780058  0.2632541239293587  1.0000
  I   I4        1.0  0.2632541828712288  0.7367457698650736  0.7367458450989283  1.0000
  I   I5        1.0  0.26325423310920165  0.7367456501659482  0.26325421935267207  1.0000
  I   I6        1.0  0.7367457564640649  0.2632543433712615  0.7367457913764253  1.0000
