data_image0
_chemical_formula_structural       Tl2SnF6
_chemical_formula_sum              "Tl2 Sn1 F6"
_cell_length_a       6.335538527485523
_cell_length_b       6.335538436868859
_cell_length_c       6.335538695916025
_cell_angle_alpha    60.00000013375292
_cell_angle_beta     59.99999884992383
_cell_angle_gamma    60.00000048793969

_space_group_name_H-M_alt    "P 1"
_space_group_IT_number       1

loop_
  _space_group_symop_operation_xyz
  'x, y, z'

loop_
  _atom_site_type_symbol
  _atom_site_label
  _atom_site_symmetry_multiplicity
  _atom_site_fract_x
  _atom_site_fract_y
  _atom_site_fract_z
  _atom_site_occupancy
  Tl  Tl1       1.0  0.2500000187912808  0.24999997003527594  0.24999996243233877  1.0000
  Tl  Tl2       1.0  0.7499999748348004  0.7500000125619646  0.7500000394134381  1.0000
  Sn  Sn1       1.0  0.9999999604560992  0.999999971002981  6.741681236773618e-08  1.0000
  F   F1        1.0  0.22398627788158493  0.22398629268116743  0.7760136969019145  1.0000
  F   F2        1.0  0.7760137583081412  0.776013687982938  0.22398624359026598  1.0000
  F   F3        1.0  0.7760137129417494  0.22398632785960565  0.2239863075244605  1.0000
  F   F4        1.0  0.22398630231516906  0.7760136991997324  0.776013733881146  1.0000
  F   F5        1.0  0.22398626410341188  0.7760137144646727  0.22398628757034644  1.0000
  F   F6        1.0  0.7760137208140798  0.2239863106615293  0.7760137099924269  1.0000
