data_image0
_chemical_formula_structural       Tl2SiCl6
_chemical_formula_sum              "Tl2 Si1 Cl6"
_cell_length_a       7.312127342376699
_cell_length_b       7.312127681037819
_cell_length_c       7.312126814002287
_cell_angle_alpha    60.000002795339675
_cell_angle_beta     60.00000434614615
_cell_angle_gamma    60.000008183247644

_space_group_name_H-M_alt    "P 1"
_space_group_IT_number       1

loop_
  _space_group_symop_operation_xyz
  'x, y, z'

loop_
  _atom_site_type_symbol
  _atom_site_label
  _atom_site_symmetry_multiplicity
  _atom_site_fract_x
  _atom_site_fract_y
  _atom_site_fract_z
  _atom_site_occupancy
  Tl  Tl1       1.0  0.2499999585503308  0.2499998825928148  0.25000000345160944  1.0000
  Tl  Tl2       1.0  0.7500000389992584  0.7500000531163451  0.7499998832847273  1.0000
  Si  Si1       1.0  0.999999896637688  0.9999999547763494  0.9999998294941623  1.0000
  Cl  Cl1       1.0  0.21478633695456628  0.21478622627986477  0.7852137273861962  1.0000
  Cl  Cl2       1.0  0.7852138420038072  0.7852138852990521  0.2147860244737885  1.0000
  Cl  Cl3       1.0  0.7852135255732376  0.21478647731686726  0.21478626039600157  1.0000
  Cl  Cl4       1.0  0.2147862876417224  0.7852136845105201  0.7852139993147859  1.0000
  Cl  Cl5       1.0  0.2147864527806615  0.7852136859649084  0.214786177810315  1.0000
  Cl  Cl6       1.0  0.7852136973424612  0.21478617102160222  0.7852141287760305  1.0000
