data_image0
_chemical_formula_structural       Tl2SeCl6
_chemical_formula_sum              "Tl2 Se1 Cl6"
_cell_length_a       7.198317835996334
_cell_length_b       7.198317951076533
_cell_length_c       7.198317924623958
_cell_angle_alpha    60.00000046023526
_cell_angle_beta     60.000000751371026
_cell_angle_gamma    60.00000289070723

_space_group_name_H-M_alt    "P 1"
_space_group_IT_number       1

loop_
  _space_group_symop_operation_xyz
  'x, y, z'

loop_
  _atom_site_type_symbol
  _atom_site_label
  _atom_site_symmetry_multiplicity
  _atom_site_fract_x
  _atom_site_fract_y
  _atom_site_fract_z
  _atom_site_occupancy
  Tl  Tl1       1.0  0.25000000172696035  0.24999997372155244  0.2500000133943608  1.0000
  Tl  Tl2       1.0  0.7499999976773144  0.7500000062362574  0.7500000111235596  1.0000
  Se  Se1       1.0  2.2456087550059143e-07  2.8924349847244686e-08  0.9999998551976147  1.0000
  Cl  Cl1       1.0  0.2388334233967953  0.23883341197381952  0.7611665649259902  1.0000
  Cl  Cl2       1.0  0.7611665259404456  0.7611665016281408  0.2388334483426995  1.0000
  Cl  Cl3       1.0  0.7611664125254916  0.23883358379464636  0.23883353323835108  1.0000
  Cl  Cl4       1.0  0.2388334877454514  0.7611664914433529  0.761166540439397  1.0000
  Cl  Cl5       1.0  0.23883347419698095  0.7611664849191507  0.23883347636433666  1.0000
  Cl  Cl6       1.0  0.761166459146229  0.2388335103515454  0.7611665513002576  1.0000
