data_image0
_chemical_formula_structural       Tl2SiBr6
_chemical_formula_sum              "Tl2 Si1 Br6"
_cell_length_a       7.452889510478715
_cell_length_b       7.452889010546607
_cell_length_c       7.4528890706188715
_cell_angle_alpha    60.00000098016198
_cell_angle_beta     60.00000162011275
_cell_angle_gamma    60.00000224065922

_space_group_name_H-M_alt    "P 1"
_space_group_IT_number       1

loop_
  _space_group_symop_operation_xyz
  'x, y, z'

loop_
  _atom_site_type_symbol
  _atom_site_label
  _atom_site_symmetry_multiplicity
  _atom_site_fract_x
  _atom_site_fract_y
  _atom_site_fract_z
  _atom_site_occupancy
  Tl  Tl1       1.0  0.24999992801435977  0.24999999453970956  0.25000005449793544  1.0000
  Tl  Tl2       1.0  0.7500000321081451  0.7500000016956067  0.7499999901701874  1.0000
  Si  Si1       1.0  3.0406630738461995e-08  5.751604750574902e-08  5.398725457802035e-08  1.0000
  Br  Br1       1.0  0.23232327489533017  0.23232317488424387  0.7676767913923629  1.0000
  Br  Br2       1.0  0.7676767338365083  0.7676767638350289  0.2323232805390605  1.0000
  Br  Br3       1.0  0.7676767272428519  0.23232321113328966  0.23232313266339497  1.0000
  Br  Br4       1.0  0.23232326159736147  0.7676767686688706  0.7676768427996586  1.0000
  Br  Br5       1.0  0.23232325482048716  0.7676767850798958  0.2323230225435075  1.0000
  Br  Br6       1.0  0.7676767835043888  0.23232319965221157  0.7676768438647865  1.0000
