data_image0
_chemical_formula_structural       Tl2SF6
_chemical_formula_sum              "Tl2 S1 F6"
_cell_length_a       5.976530333815243
_cell_length_b       5.976530286090196
_cell_length_c       5.97653042441061
_cell_angle_alpha    59.999999012474206
_cell_angle_beta     59.99999998870703
_cell_angle_gamma    59.99999966313377

_space_group_name_H-M_alt    "P 1"
_space_group_IT_number       1

loop_
  _space_group_symop_operation_xyz
  'x, y, z'

loop_
  _atom_site_type_symbol
  _atom_site_label
  _atom_site_symmetry_multiplicity
  _atom_site_fract_x
  _atom_site_fract_y
  _atom_site_fract_z
  _atom_site_occupancy
  Tl  Tl1       1.0  0.2500000181281742  0.25000000835702607  0.24999997518268544  1.0000
  Tl  Tl2       1.0  0.7499999609827447  0.7499999922829592  0.7500001124606623  1.0000
  S   S1        1.0  0.9999999889936448  0.9999999692611392  1.0833338428005151e-08  1.0000
  F   F1        1.0  0.22114709997578752  0.22114710550697428  0.7788529086813867  1.0000
  F   F2        1.0  0.7788528821788545  0.7788529381674166  0.2211470605498357  1.0000
  F   F3        1.0  0.7788529075592104  0.22114711881016774  0.22114712720673307  1.0000
  F   F4        1.0  0.22114720636721324  0.7788528367461558  0.7788528201976327  1.0000
  F   F5        1.0  0.2211471232145612  0.778852892462908  0.2211471128192648  1.0000
  F   F6        1.0  0.7788528333746344  0.2211471409651958  0.7788528692981895  1.0000
