data_image0
_chemical_formula_structural       Tl2SnBr6
_chemical_formula_sum              "Tl2 Sn1 Br6"
_cell_length_a       7.567923748539606
_cell_length_b       7.567923842856472
_cell_length_c       7.567923463070742
_cell_angle_alpha    60.00000031670416
_cell_angle_beta     60.00000053811372
_cell_angle_gamma    59.99999766263289

_space_group_name_H-M_alt    "P 1"
_space_group_IT_number       1

loop_
  _space_group_symop_operation_xyz
  'x, y, z'

loop_
  _atom_site_type_symbol
  _atom_site_label
  _atom_site_symmetry_multiplicity
  _atom_site_fract_x
  _atom_site_fract_y
  _atom_site_fract_z
  _atom_site_occupancy
  Tl  Tl1       1.0  0.2500000138467771  0.25000004630635714  0.24999998169798993  1.0000
  Tl  Tl2       1.0  0.7499999721582947  0.7499999900320992  0.7499999987310861  1.0000
  Sn  Sn1       1.0  1.1853238112749783e-07  5.178677141349517e-08  0.9999998170593069  1.0000
  Br  Br1       1.0  0.24847126378926485  0.2484712427278711  0.7515287147317385  1.0000
  Br  Br2       1.0  0.7515286073538399  0.751528602646861  0.2484713406495666  1.0000
  Br  Br3       1.0  0.7515287637136213  0.24847128660603574  0.24847119921832386  1.0000
  Br  Br4       1.0  0.24847114899036907  0.7515288597793159  0.7515288923317546  1.0000
  Br  Br5       1.0  0.24847120148261928  0.7515288321060601  0.2484711258926944  1.0000
  Br  Br6       1.0  0.7515289173290501  0.2484710941854965  0.7515289211171526  1.0000
