data_image0
_chemical_formula_structural       Tl2SeBr6
_chemical_formula_sum              "Tl2 Se1 Br6"
_cell_length_a       7.621384640265974
_cell_length_b       7.621384183401933
_cell_length_c       7.621384502756546
_cell_angle_alpha    60.00000020095562
_cell_angle_beta     59.99999846996121
_cell_angle_gamma    59.99999957776112

_space_group_name_H-M_alt    "P 1"
_space_group_IT_number       1

loop_
  _space_group_symop_operation_xyz
  'x, y, z'

loop_
  _atom_site_type_symbol
  _atom_site_label
  _atom_site_symmetry_multiplicity
  _atom_site_fract_x
  _atom_site_fract_y
  _atom_site_fract_z
  _atom_site_occupancy
  Tl  Tl1       1.0  0.24999994063293246  0.24999996829238164  0.24999997873172944  1.0000
  Tl  Tl2       1.0  0.7500000056356582  0.7499999627286074  0.7500000922536094  1.0000
  Se  Se1       1.0  2.2761651734393255e-07  0.9999998489434312  6.931202006565663e-08  1.0000
  Br  Br1       1.0  0.24306386566182053  0.24306385228687502  0.7569360832521749  1.0000
  Br  Br2       1.0  0.7569360768413723  0.7569361173017479  0.24306390210297346  1.0000
  Br  Br3       1.0  0.7569360045888857  0.24306396069743202  0.2430639773817217  1.0000
  Br  Br4       1.0  0.24306394557889818  0.7569361631617393  0.7569361316930776  1.0000
  Br  Br5       1.0  0.2430639624291563  0.7569360774721223  0.2430638022944117  1.0000
  Br  Br6       1.0  0.7569359711646658  0.24306404156608533  0.7569359684599  1.0000
