data_image0
_chemical_formula_structural       Tl2SeI6
_chemical_formula_sum              "Tl2 Se1 I6"
_cell_length_a       7.926813215093834
_cell_length_b       7.926813129339221
_cell_length_c       7.926813136563969
_cell_angle_alpha    60.00000034972062
_cell_angle_beta     59.99999975834511
_cell_angle_gamma    59.99999985963317

_space_group_name_H-M_alt    "P 1"
_space_group_IT_number       1

loop_
  _space_group_symop_operation_xyz
  'x, y, z'

loop_
  _atom_site_type_symbol
  _atom_site_label
  _atom_site_symmetry_multiplicity
  _atom_site_fract_x
  _atom_site_fract_y
  _atom_site_fract_z
  _atom_site_occupancy
  Tl  Tl1       1.0  0.250000025105925  0.2499999738212117  0.25000006599526003  1.0000
  Tl  Tl2       1.0  0.7499999742448279  0.7500000018070604  0.7499999421653845  1.0000
  Se  Se1       1.0  1.798028645893219e-08  2.472105421064476e-08  0.9999999458492629  1.0000
  I   I1        1.0  0.2584478969550535  0.2584478643487575  0.7415521244575894  1.0000
  I   I2        1.0  0.7415521119008648  0.741552122094976  0.2584478558811673  1.0000
  I   I3        1.0  0.7415520123426939  0.258447953421898  0.25844800838619914  1.0000
  I   I4        1.0  0.2584479420699026  0.7415520870991424  0.7415520301664529  1.0000
  I   I5        1.0  0.2584479616856942  0.7415520190865723  0.2584479841634392  1.0000
  I   I6        1.0  0.7415520656074899  0.25844794263610693  0.7415520422096066  1.0000
