data_image0
_chemical_formula_structural       Tl2SnI6
_chemical_formula_sum              "Tl2 Sn1 I6"
_cell_length_a       8.11283313969685
_cell_length_b       8.1128331158059
_cell_length_c       8.112832858970451
_cell_angle_alpha    60.00000117281347
_cell_angle_beta     60.000002321350095
_cell_angle_gamma    59.99999981863479

_space_group_name_H-M_alt    "P 1"
_space_group_IT_number       1

loop_
  _space_group_symop_operation_xyz
  'x, y, z'

loop_
  _atom_site_type_symbol
  _atom_site_label
  _atom_site_symmetry_multiplicity
  _atom_site_fract_x
  _atom_site_fract_y
  _atom_site_fract_z
  _atom_site_occupancy
  Tl  Tl1       1.0  0.25000007860212875  0.24999991310635167  0.2500000547416918  1.0000
  Tl  Tl2       1.0  0.7499999409904572  0.7500000729492613  0.7499999586930596  1.0000
  Sn  Sn1       1.0  2.024194015966874e-08  3.3212056143426624e-08  0.9999999387597802  1.0000
  I   I1        1.0  0.25886199388967845  0.2588617501065712  0.7411381010937287  1.0000
  I   I2        1.0  0.7411379741631537  0.7411381770731245  0.2588619318030209  1.0000
  I   I3        1.0  0.7411381482306184  0.2588618429155496  0.25886188072656735  1.0000
  I   I4        1.0  0.2588618437864046  0.7411381959774259  0.7411381324034345  1.0000
  I   I5        1.0  0.25886191771855555  0.7411381747907047  0.2588618175855859  1.0000
  I   I6        1.0  0.7411380862892412  0.25886183239985344  0.7411381782827067  1.0000
