data_image0
_chemical_formula_structural       Tl2SBr6
_chemical_formula_sum              "Tl2 S1 Br6"
_cell_length_a       7.37033549601125
_cell_length_b       7.370335364231911
_cell_length_c       7.370335227762077
_cell_angle_alpha    60.00000142726441
_cell_angle_beta     60.000004520199795
_cell_angle_gamma    60.00000104698432

_space_group_name_H-M_alt    "P 1"
_space_group_IT_number       1

loop_
  _space_group_symop_operation_xyz
  'x, y, z'

loop_
  _atom_site_type_symbol
  _atom_site_label
  _atom_site_symmetry_multiplicity
  _atom_site_fract_x
  _atom_site_fract_y
  _atom_site_fract_z
  _atom_site_occupancy
  Tl  Tl1       1.0  0.25000004663162356  0.24999999002340426  0.2499999794533761  1.0000
  Tl  Tl2       1.0  0.7499999389462483  0.7500000465094263  0.7499999897605051  1.0000
  S   S1        1.0  3.760328349052385e-08  0.9999998354895185  2.8054006111199253e-07  1.0000
  Br  Br1       1.0  0.2463994501808855  0.24639960671988534  0.7536004035655812  1.0000
  Br  Br2       1.0  0.7536004579477914  0.7536004929583825  0.2463994791816401  1.0000
  Br  Br3       1.0  0.7536003251133682  0.24639968328008172  0.24639949601391  1.0000
  Br  Br4       1.0  0.2463993178162388  0.7536005210866741  0.7536005592503429  1.0000
  Br  Br5       1.0  0.24639967812066835  0.7536004280397215  0.2463994171899953  1.0000
  Br  Br6       1.0  0.7536007311305968  0.24639940908646552  0.753600380191743  1.0000
