data_image0
_chemical_formula_structural       Tl2SCl6
_chemical_formula_sum              "Tl2 S1 Cl6"
_cell_length_a       7.2335087769697415
_cell_length_b       7.23350865277662
_cell_length_c       7.2335077852583
_cell_angle_alpha    60.00000134491169
_cell_angle_beta     59.999995284686655
_cell_angle_gamma    59.999995597210976

_space_group_name_H-M_alt    "P 1"
_space_group_IT_number       1

loop_
  _space_group_symop_operation_xyz
  'x, y, z'

loop_
  _atom_site_type_symbol
  _atom_site_label
  _atom_site_symmetry_multiplicity
  _atom_site_fract_x
  _atom_site_fract_y
  _atom_site_fract_z
  _atom_site_occupancy
  Tl  Tl1       1.0  0.24999994695826497  0.25000016116359314  0.25000004618178795  1.0000
  Tl  Tl2       1.0  0.7499999156366293  0.7499999670786117  0.7499999432515392  1.0000
  S   S1        1.0  1.6097413004460162e-07  0.9999997900488149  0.9999993277311311  1.0000
  Cl  Cl1       1.0  0.2316530061741113  0.23165322400515753  0.7683470804428235  1.0000
  Cl  Cl2       1.0  0.7683468337983591  0.7683468906918133  0.2316533141617729  1.0000
  Cl  Cl3       1.0  0.7683475227176042  0.2316525108123505  0.23165223624329787  1.0000
  Cl  Cl4       1.0  0.2316526582122346  0.7683472754126034  0.7683475272488832  1.0000
  Cl  Cl5       1.0  0.23165291239505678  0.7683470795872689  0.23165300001320746  1.0000
  Cl  Cl6       1.0  0.7683470096343978  0.23165305712070944  0.7683475471607473  1.0000
