data_image0
_chemical_formula_structural       Tl2SeF6
_chemical_formula_sum              "Tl2 Se1 F6"
_cell_length_a       6.269311778042277
_cell_length_b       6.2693120371306925
_cell_length_c       6.2693117429944
_cell_angle_alpha    59.999998934314924
_cell_angle_beta     59.99999875479223
_cell_angle_gamma    59.999999187710785

_space_group_name_H-M_alt    "P 1"
_space_group_IT_number       1

loop_
  _space_group_symop_operation_xyz
  'x, y, z'

loop_
  _atom_site_type_symbol
  _atom_site_label
  _atom_site_symmetry_multiplicity
  _atom_site_fract_x
  _atom_site_fract_y
  _atom_site_fract_z
  _atom_site_occupancy
  Tl  Tl1       1.0  0.24999995351918414  0.25000005209065845  0.250000016424634  1.0000
  Tl  Tl2       1.0  0.7500000459344701  0.7499999648235409  0.7499999215138053  1.0000
  Se  Se1       1.0  2.3812891392028957e-09  3.907110103784771e-09  3.0352300147993745e-08  1.0000
  F   F1        1.0  0.22042214219499973  0.22042220824045194  0.7795778510581276  1.0000
  F   F2        1.0  0.7795778693885518  0.7795778164879663  0.2204221965386101  1.0000
  F   F3        1.0  0.7795778506272285  0.22042215553784256  0.22042217801004582  1.0000
  F   F4        1.0  0.22042220270556273  0.7795778047232472  0.7795777868365232  1.0000
  F   F5        1.0  0.22042213474369357  0.7795778007122655  0.2204222163216105  1.0000
  F   F6        1.0  0.7795777981998034  0.2204221947128235  0.7795777975178922  1.0000
