data_image0
_chemical_formula_structural       Tl2TeF6
_chemical_formula_sum              "Tl2 Te1 F6"
_cell_length_a       6.429262880209421
_cell_length_b       6.42926272271996
_cell_length_c       6.429262797610078
_cell_angle_alpha    59.999998809645206
_cell_angle_beta     59.999997872639355
_cell_angle_gamma    60.00000164548328

_space_group_name_H-M_alt    "P 1"
_space_group_IT_number       1

loop_
  _space_group_symop_operation_xyz
  'x, y, z'

loop_
  _atom_site_type_symbol
  _atom_site_label
  _atom_site_symmetry_multiplicity
  _atom_site_fract_x
  _atom_site_fract_y
  _atom_site_fract_z
  _atom_site_occupancy
  Tl  Tl1       1.0  0.24999990791374196  0.24999995458286786  0.2500000205987273  1.0000
  Tl  Tl2       1.0  0.7499999632420299  0.7500000504340886  0.7499998502584201  1.0000
  Te  Te1       1.0  5.2302110716512644e-08  0.9999999885702788  1.3043646740217401e-07  1.0000
  F   F1        1.0  0.23073827910852637  0.2307383010300262  0.769261695115506  1.0000
  F   F2        1.0  0.7692617125789551  0.7692617249414265  0.2307383149759536  1.0000
  F   F3        1.0  0.7692615713485494  0.23073842016972282  0.23073837868090208  1.0000
  F   F4        1.0  0.23073846598305586  0.7692615981819163  0.7692615641813649  1.0000
  F   F5        1.0  0.2307384826127927  0.769261519799501  0.2307384238961475  1.0000
  F   F6        1.0  0.7692615960643693  0.23073843378370873  0.769261628667017  1.0000
