data_image0
_chemical_formula_structural       Tl2TaCl6
_chemical_formula_sum              "Tl2 Ta1 Cl6"
_cell_length_a       7.196335286660755
_cell_length_b       7.1963357174366545
_cell_length_c       7.196335401743936
_cell_angle_alpha    60.00000038275492
_cell_angle_beta     59.99999955462218
_cell_angle_gamma    60.000001418484686

_space_group_name_H-M_alt    "P 1"
_space_group_IT_number       1

loop_
  _space_group_symop_operation_xyz
  'x, y, z'

loop_
  _atom_site_type_symbol
  _atom_site_label
  _atom_site_symmetry_multiplicity
  _atom_site_fract_x
  _atom_site_fract_y
  _atom_site_fract_z
  _atom_site_occupancy
  Tl  Tl1       1.0  0.25000004936994796  0.24999998155668637  0.25000004647633106  1.0000
  Tl  Tl2       1.0  0.749999987911699  0.7499999872175774  0.7500000245547868  1.0000
  Ta  Ta1       1.0  2.7768178540161564e-07  3.3187062449842643e-07  2.0103679274558785e-07  1.0000
  Cl  Cl1       1.0  0.23534195610044575  0.23534183672836886  0.7646581029813377  1.0000
  Cl  Cl2       1.0  0.7646581171630172  0.7646580963059818  0.23534191651377112  1.0000
  Cl  Cl3       1.0  0.7646579302764758  0.23534195421057033  0.2353419122398932  1.0000
  Cl  Cl4       1.0  0.23534202206328797  0.764657840969829  0.7646579879063304  1.0000
  Cl  Cl5       1.0  0.23534179575552822  0.7646579649791589  0.2353418944693835  1.0000
  Cl  Cl6       1.0  0.7646578515828261  0.23534206165973182  0.7646578812551431  1.0000
