data_image0
_chemical_formula_structural       Tl2TeBr6
_chemical_formula_sum              "Tl2 Te1 Br6"
_cell_length_a       7.686176411042652
_cell_length_b       7.686176588929247
_cell_length_c       7.686176339266778
_cell_angle_alpha    60.00000110904536
_cell_angle_beta     60.00000168362528
_cell_angle_gamma    59.99999765528647

_space_group_name_H-M_alt    "P 1"
_space_group_IT_number       1

loop_
  _space_group_symop_operation_xyz
  'x, y, z'

loop_
  _atom_site_type_symbol
  _atom_site_label
  _atom_site_symmetry_multiplicity
  _atom_site_fract_x
  _atom_site_fract_y
  _atom_site_fract_z
  _atom_site_occupancy
  Tl  Tl1       1.0  0.24999998695750597  0.25000002954743084  0.24999994762052666  1.0000
  Tl  Tl2       1.0  0.749999998037117  0.7500000041900566  0.7500000187267305  1.0000
  Te  Te1       1.0  0.9999999360203365  1.5137664870552724e-07  0.9999998053812118  1.0000
  Br  Br1       1.0  0.25213959501701777  0.2521396498965017  0.7478603764209425  1.0000
  Br  Br2       1.0  0.7478603826041045  0.7478602977953137  0.25213964964627134  1.0000
  Br  Br3       1.0  0.7478604885730652  0.2521395386469363  0.2521395620450928  1.0000
  Br  Br4       1.0  0.25213952358550873  0.7478604361333298  0.7478605008630956  1.0000
  Br  Br5       1.0  0.25213958233107114  0.7478603699964516  0.2521396491140721  1.0000
  Br  Br6       1.0  0.7478605054298355  0.25213952670533085  0.747860494395451  1.0000
