data_image0
_chemical_formula_structural       Tl2TiI6
_chemical_formula_sum              "Tl2 Ti1 I6"
_cell_length_a       8.065538564677343
_cell_length_b       8.065538476383118
_cell_length_c       8.065538984973848
_cell_angle_alpha    59.999997173578436
_cell_angle_beta     59.99999573441745
_cell_angle_gamma    59.99999886403879

_space_group_name_H-M_alt    "P 1"
_space_group_IT_number       1

loop_
  _space_group_symop_operation_xyz
  'x, y, z'

loop_
  _atom_site_type_symbol
  _atom_site_label
  _atom_site_symmetry_multiplicity
  _atom_site_fract_x
  _atom_site_fract_y
  _atom_site_fract_z
  _atom_site_occupancy
  Tl  Tl1       1.0  0.24999987527161457  0.24999991911983258  0.2500001272905172  1.0000
  Tl  Tl2       1.0  0.750000145222246  0.7500000975015276  0.7499998355516053  1.0000
  Ti  Ti1       1.0  1.103807204415217e-07  4.251775454758071e-08  6.117330491047117e-08  1.0000
  I   I1        1.0  0.241694497371128  0.24169442127985424  0.7583055551396919  1.0000
  I   I2        1.0  0.7583054273066663  0.7583054146410547  0.24169457199739  1.0000
  I   I3        1.0  0.7583055775850176  0.24169443540728544  0.24169448320213474  1.0000
  I   I4        1.0  0.24169451203488343  0.7583054597347818  0.7583055070564563  1.0000
  I   I5        1.0  0.24169444580650104  0.7583056079216809  0.24169444878961507  1.0000
  I   I6        1.0  0.7583054185186178  0.2416946152144771  0.7583053958912753  1.0000
