data_image0
_chemical_formula_structural       Tl2TiBr6
_chemical_formula_sum              "Tl2 Ti1 Br6"
_cell_length_a       7.470891356670175
_cell_length_b       7.4708913633339655
_cell_length_c       7.470891405789717
_cell_angle_alpha    59.99999999403395
_cell_angle_beta     59.99999982749372
_cell_angle_gamma    60.000000754868324

_space_group_name_H-M_alt    "P 1"
_space_group_IT_number       1

loop_
  _space_group_symop_operation_xyz
  'x, y, z'

loop_
  _atom_site_type_symbol
  _atom_site_label
  _atom_site_symmetry_multiplicity
  _atom_site_fract_x
  _atom_site_fract_y
  _atom_site_fract_z
  _atom_site_occupancy
  Tl  Tl1       1.0  0.2500000025843479  0.2499999968214806  0.24999999766144385  1.0000
  Tl  Tl2       1.0  0.749999997839239  0.7499999970218648  0.7500000040322208  1.0000
  Ti  Ti1       1.0  3.7153212506559724e-09  2.1311624744865754e-08  3.5488673188795057e-09  1.0000
  Br  Br1       1.0  0.24034566905271512  0.2403456644885174  0.7596543315282221  1.0000
  Br  Br2       1.0  0.7596543477322573  0.7596543359122511  0.2403456520133964  1.0000
  Br  Br3       1.0  0.7596543177564482  0.2403456734588319  0.2403456758758404  1.0000
  Br  Br4       1.0  0.2403456750328977  0.7596543154664462  0.7596543307554499  1.0000
  Br  Br5       1.0  0.24034567094114723  0.7596543177618804  0.24034567900830942  1.0000
  Br  Br6       1.0  0.7596543140264453  0.24034567608146493  0.759654325059239  1.0000
