data_image0
_chemical_formula_structural       Tl2TeI6
_chemical_formula_sum              "Tl2 Te1 I6"
_cell_length_a       8.19572073990637
_cell_length_b       8.195720674973598
_cell_length_c       8.19572056308343
_cell_angle_alpha    59.999999755219
_cell_angle_beta     60.00000097997048
_cell_angle_gamma    59.999998317569634

_space_group_name_H-M_alt    "P 1"
_space_group_IT_number       1

loop_
  _space_group_symop_operation_xyz
  'x, y, z'

loop_
  _atom_site_type_symbol
  _atom_site_label
  _atom_site_symmetry_multiplicity
  _atom_site_fract_x
  _atom_site_fract_y
  _atom_site_fract_z
  _atom_site_occupancy
  Tl  Tl1       1.0  0.24999997705937663  0.25000001809869843  0.24999997579706465  1.0000
  Tl  Tl2       1.0  0.7500000216485412  0.7499999646338213  0.7500000197184475  1.0000
  Te  Te1       1.0  8.48615924434249e-08  7.471854760119931e-09  0.9999999147885095  1.0000
  I   I1        1.0  0.25621128533246706  0.2562115003818768  0.7437885961725631  1.0000
  I   I2        1.0  0.7437886751787063  0.7437884659125608  0.25621142788051143  1.0000
  I   I3        1.0  0.7437886132052948  0.2562114788067881  0.2562113845217938  1.0000
  I   I4        1.0  0.2562113442023437  0.7437885517456101  0.7437886553197283  1.0000
  I   I5        1.0  0.256211342785614  0.7437885351641851  0.2562114684832524  1.0000
  I   I6        1.0  0.7437886567329584  0.25621147895012913  0.7437885548613978  1.0000
