data_image0
_chemical_formula_structural       Tl2TiCl6
_chemical_formula_sum              "Tl2 Ti1 Cl6"
_cell_length_a       7.1823704768278045
_cell_length_b       7.182369830046447
_cell_length_c       7.1823706097257425
_cell_angle_alpha    59.99999832252084
_cell_angle_beta     59.999999482447315
_cell_angle_gamma    60.00000193803725

_space_group_name_H-M_alt    "P 1"
_space_group_IT_number       1

loop_
  _space_group_symop_operation_xyz
  'x, y, z'

loop_
  _atom_site_type_symbol
  _atom_site_label
  _atom_site_symmetry_multiplicity
  _atom_site_fract_x
  _atom_site_fract_y
  _atom_site_fract_z
  _atom_site_occupancy
  Tl  Tl1       1.0  0.25000000411266143  0.2499999576956435  0.25000002360497675  1.0000
  Tl  Tl2       1.0  0.7499999840626711  0.7500000350818792  0.7499999914244331  1.0000
  Ti  Ti1       1.0  1.833662183143432e-08  0.9999998533519421  1.309860183436991e-07  1.0000
  Cl  Cl1       1.0  0.23335366056961604  0.23335355743943237  0.7666463722981627  1.0000
  Cl  Cl2       1.0  0.7666463270205814  0.7666464660318693  0.2333535733773048  1.0000
  Cl  Cl3       1.0  0.7666463539857602  0.233353595115813  0.23335369297492412  1.0000
  Cl  Cl4       1.0  0.23335363992093158  0.7666464624596894  0.7666462547669639  1.0000
  Cl  Cl5       1.0  0.23335364746009005  0.7666464527874002  0.23335359967160216  1.0000
  Cl  Cl6       1.0  0.766646373891539  0.23335357068390386  0.7666463681074915  1.0000
