data_image0
_chemical_formula_structural       Tl2TaBr6
_chemical_formula_sum              "Tl2 Ta1 Br6"
_cell_length_a       7.552380211852034
_cell_length_b       7.552379767867879
_cell_length_c       7.552379882201736
_cell_angle_alpha    60.00000031711203
_cell_angle_beta     59.999995474108395
_cell_angle_gamma    59.999999408326396

_space_group_name_H-M_alt    "P 1"
_space_group_IT_number       1

loop_
  _space_group_symop_operation_xyz
  'x, y, z'

loop_
  _atom_site_type_symbol
  _atom_site_label
  _atom_site_symmetry_multiplicity
  _atom_site_fract_x
  _atom_site_fract_y
  _atom_site_fract_z
  _atom_site_occupancy
  Tl  Tl1       1.0  0.24999998247296382  0.24999993544653865  0.25000005764238703  1.0000
  Tl  Tl2       1.0  0.7500000171901422  0.7499999960747109  0.7500000193404391  1.0000
  Ta  Ta1       1.0  0.9999998843901833  0.9999999156732813  0.999999829854741  1.0000
  Br  Br1       1.0  0.23967687286924733  0.23967679717947152  0.7603231050369637  1.0000
  Br  Br2       1.0  0.7603232981391451  0.7603232624535053  0.23967666332703602  1.0000
  Br  Br3       1.0  0.7603231184969551  0.23967689357806912  0.23967694205714823  1.0000
  Br  Br4       1.0  0.23967672910311302  0.7603233152483206  0.7603231822037683  1.0000
  Br  Br5       1.0  0.23967678951675597  0.7603231316443111  0.23967695331419522  1.0000
  Br  Br6       1.0  0.7603232988556862  0.2396767447402485  0.7603232141332646  1.0000
