data_image0
_chemical_formula_structural       Tl2TeCl6
_chemical_formula_sum              "Tl2 Te1 Cl6"
_cell_length_a       7.366570978634072
_cell_length_b       7.36657093055244
_cell_length_c       7.3665708697392995
_cell_angle_alpha    60.000000546149465
_cell_angle_beta     60.00000235292805
_cell_angle_gamma    59.9999981464418

_space_group_name_H-M_alt    "P 1"
_space_group_IT_number       1

loop_
  _space_group_symop_operation_xyz
  'x, y, z'

loop_
  _atom_site_type_symbol
  _atom_site_label
  _atom_site_symmetry_multiplicity
  _atom_site_fract_x
  _atom_site_fract_y
  _atom_site_fract_z
  _atom_site_occupancy
  Tl  Tl1       1.0  0.25000002200006105  0.2500000336860991  0.24999994023889058  1.0000
  Tl  Tl2       1.0  0.750000010285183  0.7499999813531704  0.75000002381285  1.0000
  Te  Te1       1.0  0.999999601187074  3.641031063800882e-07  2.7256184358978747e-07  1.0000
  Cl  Cl1       1.0  0.24542903898289367  0.24542896684640345  0.754570983437224  1.0000
  Cl  Cl2       1.0  0.7545709835660357  0.7545709833525889  0.24542903147764963  1.0000
  Cl  Cl3       1.0  0.7545712231900065  0.24542877271638533  0.24542890636788042  1.0000
  Cl  Cl4       1.0  0.2454291758140621  0.7545708898577772  0.7545707939925835  1.0000
  Cl  Cl5       1.0  0.24542885423251445  0.7545711628668783  0.24542892494455268  1.0000
  Cl  Cl6       1.0  0.7545710940577  0.2454288455221085  0.7545711197244195  1.0000
