data_image0
_chemical_formula_structural       Tl2TaF6
_chemical_formula_sum              "Tl2 Ta1 F6"
_cell_length_a       6.29260260792574
_cell_length_b       6.292603469093418
_cell_length_c       6.292603400426541
_cell_angle_alpha    59.999998676724154
_cell_angle_beta     59.99999498136264
_cell_angle_gamma    59.99999961402178

_space_group_name_H-M_alt    "P 1"
_space_group_IT_number       1

loop_
  _space_group_symop_operation_xyz
  'x, y, z'

loop_
  _atom_site_type_symbol
  _atom_site_label
  _atom_site_symmetry_multiplicity
  _atom_site_fract_x
  _atom_site_fract_y
  _atom_site_fract_z
  _atom_site_occupancy
  Tl  Tl1       1.0  0.24999998329656295  0.2500000764540558  0.25000007177209765  1.0000
  Tl  Tl2       1.0  0.7499999526342949  0.7500001495628691  0.7499997008133952  1.0000
  Ta  Ta1       1.0  0.9999999858573609  3.892648997405713e-09  2.4195003525331988e-08  1.0000
  F   F1        1.0  0.21981121889305966  0.21981120286299258  0.7801888166233922  1.0000
  F   F2        1.0  0.7801887616952187  0.7801887020103752  0.21981139137947103  1.0000
  F   F3        1.0  0.7801888633645777  0.2198110287188274  0.21981129304827418  1.0000
  F   F4        1.0  0.21981124840010147  0.7801888294427516  0.7801887090380436  1.0000
  F   F5        1.0  0.21981122700804476  0.7801887098794377  0.21981121309211388  1.0000
  F   F6        1.0  0.7801888362480234  0.21981122224247562  0.7801887413066593  1.0000
