data_image0
_chemical_formula_structural       Tl2VI6
_chemical_formula_sum              "Tl2 V1 I6"
_cell_length_a       7.947520649402138
_cell_length_b       7.947520032850982
_cell_length_c       7.947520955412004
_cell_angle_alpha    59.99999940944506
_cell_angle_beta     59.999995319416136
_cell_angle_gamma    59.99999880059406

_space_group_name_H-M_alt    "P 1"
_space_group_IT_number       1

loop_
  _space_group_symop_operation_xyz
  'x, y, z'

loop_
  _atom_site_type_symbol
  _atom_site_label
  _atom_site_symmetry_multiplicity
  _atom_site_fract_x
  _atom_site_fract_y
  _atom_site_fract_z
  _atom_site_occupancy
  Tl  Tl1       1.0  0.2500000591793807  0.2499999998622011  0.2500000195421928  1.0000
  Tl  Tl2       1.0  0.7499999891009511  0.7499999764709864  0.7499999681153633  1.0000
  V   V1        1.0  0.9999998513628503  2.3115602798234177e-08  6.276077784062054e-08  1.0000
  I   I1        1.0  0.2400920261947503  0.24009184422868923  0.759908109118682  1.0000
  I   I2        1.0  0.7599080011128274  0.7599081906640338  0.24009193775723317  1.0000
  I   I3        1.0  0.7599081376442153  0.24009192906039303  0.2400919631782495  1.0000
  I   I4        1.0  0.24009191826830917  0.7599080025826219  0.7599079750625796  1.0000
  I   I5        1.0  0.24009196010707295  0.7599079829068943  0.2400922147458521  1.0000
  I   I6        1.0  0.7599080554891225  0.2400920566089452  0.7599077450799087  1.0000
