data_image0
_chemical_formula_structural       Tl2VBr6
_chemical_formula_sum              "Tl2 V1 Br6"
_cell_length_a       7.377328827950182
_cell_length_b       7.377328687901518
_cell_length_c       7.377329031638954
_cell_angle_alpha    60.00000052398475
_cell_angle_beta     60.00000039197192
_cell_angle_gamma    59.999998866559984

_space_group_name_H-M_alt    "P 1"
_space_group_IT_number       1

loop_
  _space_group_symop_operation_xyz
  'x, y, z'

loop_
  _atom_site_type_symbol
  _atom_site_label
  _atom_site_symmetry_multiplicity
  _atom_site_fract_x
  _atom_site_fract_y
  _atom_site_fract_z
  _atom_site_occupancy
  Tl  Tl1       1.0  0.24999998769122603  0.2500000241495416  0.2500000145696549  1.0000
  Tl  Tl2       1.0  0.7500000168764885  0.7500000143434843  0.7499999794404267  1.0000
  V   V1        1.0  0.9999998938646335  1.211907178713553e-07  0.9999999355411515  1.0000
  Br  Br1       1.0  0.2389613053949853  0.23896136706482388  0.7610387035226723  1.0000
  Br  Br2       1.0  0.7610386312859042  0.7610385651788074  0.2389614155096325  1.0000
  Br  Br3       1.0  0.7610387214248346  0.23896134217252474  0.23896130360084777  1.0000
  Br  Br4       1.0  0.23896144657495003  0.7610385253253736  0.7610385139087119  1.0000
  Br  Br5       1.0  0.23896124197320573  0.7610387663594286  0.2389613355873189  1.0000
  Br  Br6       1.0  0.7610387784527052  0.23896123395022242  0.7610387861587071  1.0000
