data_image0
_chemical_formula_structural       Tl2VF6
_chemical_formula_sum              "Tl2 V1 F6"
_cell_length_a       6.267469826313032
_cell_length_b       6.267469675171411
_cell_length_c       6.267469402883542
_cell_angle_alpha    60.00000045144807
_cell_angle_beta     60.00000268748228
_cell_angle_gamma    60.00000221178145

_space_group_name_H-M_alt    "P 1"
_space_group_IT_number       1

loop_
  _space_group_symop_operation_xyz
  'x, y, z'

loop_
  _atom_site_type_symbol
  _atom_site_label
  _atom_site_symmetry_multiplicity
  _atom_site_fract_x
  _atom_site_fract_y
  _atom_site_fract_z
  _atom_site_occupancy
  Tl  Tl1       1.0  0.250000083302408  0.2500000287627596  0.24999992517926978  1.0000
  Tl  Tl2       1.0  0.7499999995140448  0.7499999807652672  0.7500001433652002  1.0000
  V   V1        1.0  7.259643183841898e-08  2.54036872704153e-08  0.9999999845062868  1.0000
  F   F1        1.0  0.21416664872917213  0.21416647885529  0.7858333870186778  1.0000
  F   F2        1.0  0.7858334723683861  0.785833487681887  0.21416647805596634  1.0000
  F   F3        1.0  0.7858332459540219  0.21416662406350503  0.21416665745820956  1.0000
  F   F4        1.0  0.2141666281540575  0.7858333483360542  0.7858334334856416  1.0000
  F   F5        1.0  0.21416654837171595  0.7858334416833229  0.2141665194261229  1.0000
  F   F6        1.0  0.7858332572141836  0.21416658152360818  0.7858334958114959  1.0000
