data_image0
_chemical_formula_structural       Tl2VCl6
_chemical_formula_sum              "Tl2 V1 Cl6"
_cell_length_a       7.1073243157722406
_cell_length_b       7.107324316221819
_cell_length_c       7.107324727701551
_cell_angle_alpha    59.99999682624538
_cell_angle_beta     59.999997302104006
_cell_angle_gamma    60.000000088005564

_space_group_name_H-M_alt    "P 1"
_space_group_IT_number       1

loop_
  _space_group_symop_operation_xyz
  'x, y, z'

loop_
  _atom_site_type_symbol
  _atom_site_label
  _atom_site_symmetry_multiplicity
  _atom_site_fract_x
  _atom_site_fract_y
  _atom_site_fract_z
  _atom_site_occupancy
  Tl  Tl1       1.0  0.2500000768926149  0.2500000183975935  0.24999996343718514  1.0000
  Tl  Tl2       1.0  0.7499999649230069  0.7500000190052563  0.7499999892237691  1.0000
  V   V1        1.0  5.609458571828367e-08  0.9999998414642036  3.07294455613951e-07  1.0000
  Cl  Cl1       1.0  0.23165052242345596  0.23165056416597998  0.7683494492375733  1.0000
  Cl  Cl2       1.0  0.7683493990516563  0.7683495077011702  0.231650547768485  1.0000
  Cl  Cl3       1.0  0.7683494084371083  0.23165060080132144  0.23165065598079265  1.0000
  Cl  Cl4       1.0  0.23165066667709644  0.7683493659497087  0.7683492070178441  1.0000
  Cl  Cl5       1.0  0.23165061009064883  0.768349387532948  0.23165067673358206  1.0000
  Cl  Cl6       1.0  0.7683493155854949  0.2316506912270643  0.768349199351597  1.0000
