data_image0
_chemical_formula_structural       Tl2WCl6
_chemical_formula_sum              "Tl2 W1 Cl6"
_cell_length_a       7.150351040595333
_cell_length_b       7.150350759291624
_cell_length_c       7.150350267397763
_cell_angle_alpha    60.000003107326464
_cell_angle_beta     60.000002404643276
_cell_angle_gamma    59.99999225156507

_space_group_name_H-M_alt    "P 1"
_space_group_IT_number       1

loop_
  _space_group_symop_operation_xyz
  'x, y, z'

loop_
  _atom_site_type_symbol
  _atom_site_label
  _atom_site_symmetry_multiplicity
  _atom_site_fract_x
  _atom_site_fract_y
  _atom_site_fract_z
  _atom_site_occupancy
  Tl  Tl1       1.0  0.24999999353062516  0.25000001609028183  0.25000000102113756  1.0000
  Tl  Tl2       1.0  0.7500000245045021  0.7500000037368477  0.7499999684107754  1.0000
  W   W1        1.0  1.1277559349663099e-06  3.37430519538042e-07  0.9999991233578776  1.0000
  Cl  Cl1       1.0  0.23661574597528154  0.23661563947576664  0.7633843126232313  1.0000
  Cl  Cl2       1.0  0.7633834239343411  0.7633834365733734  0.2366165639486935  1.0000
  Cl  Cl3       1.0  0.7633841601158642  0.23661588323084842  0.23661590835806273  1.0000
  Cl  Cl4       1.0  0.23661556778801665  0.7633845031453325  0.7633843375348522  1.0000
  Cl  Cl5       1.0  0.23661575930471937  0.7633843348376912  0.2366157426940772  1.0000
  Cl  Cl6       1.0  0.7633841920441705  0.2366158511354934  0.7633840567341004  1.0000
