data_image0
_chemical_formula_structural       Tl2WI6
_chemical_formula_sum              "Tl2 W1 I6"
_cell_length_a       8.028127821663235
_cell_length_b       8.028128143962512
_cell_length_c       8.028128310120081
_cell_angle_alpha    59.99999499788632
_cell_angle_beta     59.99999905850376
_cell_angle_gamma    59.99999943224508

_space_group_name_H-M_alt    "P 1"
_space_group_IT_number       1

loop_
  _space_group_symop_operation_xyz
  'x, y, z'

loop_
  _atom_site_type_symbol
  _atom_site_label
  _atom_site_symmetry_multiplicity
  _atom_site_fract_x
  _atom_site_fract_y
  _atom_site_fract_z
  _atom_site_occupancy
  Tl  Tl1       1.0  0.24999995577977577  0.2500000399002803  0.25000001532616056  1.0000
  Tl  Tl2       1.0  0.7499999889159512  0.749999979348661  0.7499999843659051  1.0000
  W   W1        1.0  0.9999999619160105  0.9999994324889531  9.505201187036271e-07  1.0000
  I   I1        1.0  0.24279734645136292  0.24279740303832792  0.7572026516695868  1.0000
  I   I2        1.0  0.7572030671884015  0.7572029655655166  0.24279696752226915  1.0000
  I   I3        1.0  0.7572028024122479  0.2427971961496319  0.2427971877163391  1.0000
  I   I4        1.0  0.2427973841155948  0.7572024859489622  0.757202705177932  1.0000
  I   I5        1.0  0.2427969596205356  0.7572029876595332  0.2427969831440236  1.0000
  I   I6        1.0  0.7572025297885406  0.2427974999385657  0.757202570312786  1.0000
