data_image0
_chemical_formula_structural       Tl2WF6
_chemical_formula_sum              "Tl2 W1 F6"
_cell_length_a       6.296404930991148
_cell_length_b       6.2964049453457935
_cell_length_c       6.29640478842707
_cell_angle_alpha    59.999999148235986
_cell_angle_beta     59.999998697470275
_cell_angle_gamma    60.00000015927176

_space_group_name_H-M_alt    "P 1"
_space_group_IT_number       1

loop_
  _space_group_symop_operation_xyz
  'x, y, z'

loop_
  _atom_site_type_symbol
  _atom_site_label
  _atom_site_symmetry_multiplicity
  _atom_site_fract_x
  _atom_site_fract_y
  _atom_site_fract_z
  _atom_site_occupancy
  Tl  Tl1       1.0  0.24999999164175543  0.24999999045751073  0.2500000568254245  1.0000
  Tl  Tl2       1.0  0.7500001008162978  0.7499999733176842  0.7499999620312583  1.0000
  W   W1        1.0  1.5987088417358707e-08  0.9999999630421599  2.954387119162286e-08  1.0000
  F   F1        1.0  0.22671517059972152  0.22671516436033462  0.7732848549704879  1.0000
  F   F2        1.0  0.7732848067100673  0.7732848752756887  0.2267151930591613  1.0000
  F   F3        1.0  0.7732847735237409  0.22671516244594728  0.22671526240149278  1.0000
  F   F4        1.0  0.22671518991261377  0.7732848032743969  0.7732847389948622  1.0000
  F   F5        1.0  0.22671520551557825  0.7732848288744343  0.22671523221207043  1.0000
  F   F6        1.0  0.77328473013246  0.2267152477194299  0.7732847149360184  1.0000
