data_image0
_chemical_formula_structural       Tl2WBr6
_chemical_formula_sum              "Tl2 W1 Br6"
_cell_length_a       7.529669055931788
_cell_length_b       7.5296696339779166
_cell_length_c       7.529669053426669
_cell_angle_alpha    59.99999923595635
_cell_angle_beta     60.00000607100274
_cell_angle_gamma    59.99999468751624

_space_group_name_H-M_alt    "P 1"
_space_group_IT_number       1

loop_
  _space_group_symop_operation_xyz
  'x, y, z'

loop_
  _atom_site_type_symbol
  _atom_site_label
  _atom_site_symmetry_multiplicity
  _atom_site_fract_x
  _atom_site_fract_y
  _atom_site_fract_z
  _atom_site_occupancy
  Tl  Tl1       1.0  0.25000011966611557  0.24999998580558822  0.2499999528878266  1.0000
  Tl  Tl2       1.0  0.7499998686846385  0.7500000159729165  0.7500000559491196  1.0000
  W   W1        1.0  0.9999999655709181  5.725486238950943e-07  1.1165012491319072e-08  1.0000
  Br  Br1       1.0  0.23951819755282328  0.23951845327304136  0.7604816286346417  1.0000
  Br  Br2       1.0  0.7604812963674539  0.7604813939824379  0.23951864225929478  1.0000
  Br  Br3       1.0  0.7604817767984589  0.23951825239088567  0.23951818302634256  1.0000
  Br  Br4       1.0  0.23951854585224538  0.7604814549805127  0.7604812600234813  1.0000
  Br  Br5       1.0  0.23951831226106407  0.7604817060705402  0.2395184423953636  1.0000
  Br  Br6       1.0  0.7604819034887255  0.23951816558323746  0.7604818166223558  1.0000
