data_image0
_chemical_formula_structural       Tl2ZrF6
_chemical_formula_sum              "Tl2 Zr1 F6"
_cell_length_a       6.322980353928523
_cell_length_b       6.322980310762424
_cell_length_c       6.32298066709819
_cell_angle_alpha    59.9999989978111
_cell_angle_beta     60.000000415270826
_cell_angle_gamma    60.000000581201554

_space_group_name_H-M_alt    "P 1"
_space_group_IT_number       1

loop_
  _space_group_symop_operation_xyz
  'x, y, z'

loop_
  _atom_site_type_symbol
  _atom_site_label
  _atom_site_symmetry_multiplicity
  _atom_site_fract_x
  _atom_site_fract_y
  _atom_site_fract_z
  _atom_site_occupancy
  Tl  Tl1       1.0  0.24999992960159453  0.2500000467516162  0.25000002784169273  1.0000
  Tl  Tl2       1.0  0.7500000461719821  0.7499999872339013  0.7500000345150208  1.0000
  Zr  Zr1       1.0  0.9999999900208106  0.9999999806302593  2.5745192854772716e-08  1.0000
  F   F1        1.0  0.22814637369414226  0.22814643598717207  0.7718535943194602  1.0000
  F   F2        1.0  0.7718536357264132  0.7718535573218904  0.22814638456769923  1.0000
  F   F3        1.0  0.7718536204322547  0.22814637846026445  0.22814637606023067  1.0000
  F   F4        1.0  0.228146384801027  0.77185361097485  0.7718536068575396  1.0000
  F   F5        1.0  0.2281464251584  0.7718536040699848  0.2281463607404148  1.0000
  F   F6        1.0  0.7718535886709839  0.2281463814911815  0.7718535960932897  1.0000
