data_image0
_chemical_formula_structural       Tl2ZrI6
_chemical_formula_sum              "Tl2 Zr1 I6"
_cell_length_a       8.193382111350136
_cell_length_b       8.193382103213944
_cell_length_c       8.193382062707022
_cell_angle_alpha    60.000000586286184
_cell_angle_beta     59.999999810340775
_cell_angle_gamma    59.999999909138836

_space_group_name_H-M_alt    "P 1"
_space_group_IT_number       1

loop_
  _space_group_symop_operation_xyz
  'x, y, z'

loop_
  _atom_site_type_symbol
  _atom_site_label
  _atom_site_symmetry_multiplicity
  _atom_site_fract_x
  _atom_site_fract_y
  _atom_site_fract_z
  _atom_site_occupancy
  Tl  Tl1       1.0  0.2500000764286728  0.2499999233136254  0.24999999637149417  1.0000
  Tl  Tl2       1.0  0.7499999260939498  0.750000100291167  0.7499999865198483  1.0000
  Zr  Zr1       1.0  2.9097218467916322e-08  1.4947977858446416e-09  1.765741663436654e-08  1.0000
  I   I1        1.0  0.24765231271643048  0.2476522569870661  0.7523477124455458  1.0000
  I   I2        1.0  0.7523476577340457  0.7523477486801543  0.24765230521463366  1.0000
  I   I3        1.0  0.7523477338908635  0.24765225946660072  0.2476522404090836  1.0000
  I   I4        1.0  0.24765228806412956  0.7523477058410816  0.7523477326226954  1.0000
  I   I5        1.0  0.2476522662806046  0.7523477221185426  0.247652270383121  1.0000
  I   I6        1.0  0.7523477069030002  0.2476522880330709  0.7523477375658115  1.0000
