data_image0
_chemical_formula_structural       Tl2ZrBr6
_chemical_formula_sum              "Tl2 Zr1 Br6"
_cell_length_a       7.646963829785053
_cell_length_b       7.646963624923065
_cell_length_c       7.646964061524804
_cell_angle_alpha    59.99999937937533
_cell_angle_beta     59.999999110352164
_cell_angle_gamma    60.0000048606954

_space_group_name_H-M_alt    "P 1"
_space_group_IT_number       1

loop_
  _space_group_symop_operation_xyz
  'x, y, z'

loop_
  _atom_site_type_symbol
  _atom_site_label
  _atom_site_symmetry_multiplicity
  _atom_site_fract_x
  _atom_site_fract_y
  _atom_site_fract_z
  _atom_site_occupancy
  Tl  Tl1       1.0  0.25000005758901056  0.24999998437244222  0.24999994752815655  1.0000
  Tl  Tl2       1.0  0.749999964872137  0.7500000331977832  0.7500000411856662  1.0000
  Zr  Zr1       1.0  0.9999998472454489  0.9999999599597587  2.9778450666849227e-07  1.0000
  Br  Br1       1.0  0.2452756571747052  0.2452756774455307  0.7547243572812281  1.0000
  Br  Br2       1.0  0.7547243408514624  0.7547243545391779  0.24527566390472194  1.0000
  Br  Br3       1.0  0.7547243058405644  0.24527575201666416  0.2452757245655639  1.0000
  Br  Br4       1.0  0.2452758559551964  0.7547241646521783  0.7547240971605808  1.0000
  Br  Br5       1.0  0.24527581285518826  0.7547242152040008  0.24527579491302642  1.0000
  Br  Br6       1.0  0.754724161070961  0.24527586643059437  0.7547240657269282  1.0000
