data_image0
_chemical_formula_structural       Tl2ZrCl6
_chemical_formula_sum              "Tl2 Zr1 Cl6"
_cell_length_a       7.288797388359462
_cell_length_b       7.288797359301922
_cell_length_c       7.288797499321794
_cell_angle_alpha    60.00000003472073
_cell_angle_beta     59.99999886294958
_cell_angle_gamma    59.99999966339412

_space_group_name_H-M_alt    "P 1"
_space_group_IT_number       1

loop_
  _space_group_symop_operation_xyz
  'x, y, z'

loop_
  _atom_site_type_symbol
  _atom_site_label
  _atom_site_symmetry_multiplicity
  _atom_site_fract_x
  _atom_site_fract_y
  _atom_site_fract_z
  _atom_site_occupancy
  Tl  Tl1       1.0  0.24999999760820762  0.250000014435702  0.24999998860610426  1.0000
  Tl  Tl2       1.0  0.7499999943457129  0.7499999912174554  0.7500000116821195  1.0000
  Zr  Zr1       1.0  0.9999999229803156  7.897463213133796e-08  5.882369036350632e-09  1.0000
  Cl  Cl1       1.0  0.24124248100508888  0.24124240823997184  0.7587575720011156  1.0000
  Cl  Cl2       1.0  0.7587575389210445  0.7587575705282045  0.24124243597530245  1.0000
  Cl  Cl3       1.0  0.758757614471905  0.2412423966751478  0.24124240141236686  1.0000
  Cl  Cl4       1.0  0.24124247239204558  0.7587575333639992  0.7587574931900566  1.0000
  Cl  Cl5       1.0  0.2412425079994548  0.7587575029887719  0.24124255613505657  1.0000
  Cl  Cl6       1.0  0.7587574637276059  0.24124251106594302  0.7587575296399868  1.0000
