data_image0
_chemical_formula_structural       V2AuCl6
_chemical_formula_sum              "V2 Au1 Cl6"
_cell_length_a       6.6346778848433905
_cell_length_b       6.634677890924308
_cell_length_c       6.6346778860746545
_cell_angle_alpha    59.9999999292781
_cell_angle_beta     60.00000040043241
_cell_angle_gamma    59.99999964739012

_space_group_name_H-M_alt    "P 1"
_space_group_IT_number       1

loop_
  _space_group_symop_operation_xyz
  'x, y, z'

loop_
  _atom_site_type_symbol
  _atom_site_label
  _atom_site_symmetry_multiplicity
  _atom_site_fract_x
  _atom_site_fract_y
  _atom_site_fract_z
  _atom_site_occupancy
  V   V1        1.0  0.2499999435006659  0.25000005299405836  0.2500000320283456  1.0000
  V   V2        1.0  0.7499999927154206  0.749999896853741  0.7500000284784333  1.0000
  Au  Au1       1.0  0.9999999897687353  0.9999999889241508  0.9999999910595386  1.0000
  Cl  Cl1       1.0  0.2590614451646011  0.25906141255545195  0.7409385859069079  1.0000
  Cl  Cl2       1.0  0.7409385469011484  0.7409386203612173  0.2590614533720347  1.0000
  Cl  Cl3       1.0  0.7409386017333487  0.25906146084573217  0.25906136104154803  1.0000
  Cl  Cl4       1.0  0.25906138593766637  0.7409385591491128  0.7409386266063865  1.0000
  Cl  Cl5       1.0  0.25906146258287077  0.7409385530239528  0.2590613585857045  1.0000
  Cl  Cl6       1.0  0.7409386393393382  0.2590614688168666  0.7409385544340923  1.0000
