data_image0
_chemical_formula_structural       V2AuI6
_chemical_formula_sum              "V2 Au1 I6"
_cell_length_a       7.622702402739705
_cell_length_b       7.622702331795
_cell_length_c       7.622702372801295
_cell_angle_alpha    59.999999534196846
_cell_angle_beta     59.99999974481016
_cell_angle_gamma    59.999998963915225

_space_group_name_H-M_alt    "P 1"
_space_group_IT_number       1

loop_
  _space_group_symop_operation_xyz
  'x, y, z'

loop_
  _atom_site_type_symbol
  _atom_site_label
  _atom_site_symmetry_multiplicity
  _atom_site_fract_x
  _atom_site_fract_y
  _atom_site_fract_z
  _atom_site_occupancy
  V   V1        1.0  0.25000000220956253  0.24999999822146415  0.2500000199751287  1.0000
  V   V2        1.0  0.7500000144626784  0.7500000075180481  0.7500000154729244  1.0000
  Au  Au1       1.0  0.9999999654190916  1.285365586913976e-08  0.9999999951211778  1.0000
  I   I1        1.0  0.2618471791231547  0.2618471585838311  0.7381528438778598  1.0000
  I   I2        1.0  0.7381528519936833  0.7381528310886116  0.2618471399066009  1.0000
  I   I3        1.0  0.7381528329609436  0.2618471701987863  0.2618471433385407  1.0000
  I   I4        1.0  0.2618471494979457  0.7381528291138986  0.7381528586429027  1.0000
  I   I5        1.0  0.2618471415109246  0.73815285407562  0.26184715797020647  1.0000
  I   I6        1.0  0.738152866791757  0.26184714041694374  0.7381528216925649  1.0000
