data_image0
_chemical_formula_structural       V2AuF6
_chemical_formula_sum              "V2 Au1 F6"
_cell_length_a       5.398975971983679
_cell_length_b       5.3989764595774234
_cell_length_c       5.398976166139524
_cell_angle_alpha    60.00000148542395
_cell_angle_beta     60.00000094093378
_cell_angle_gamma    60.000003702363934

_space_group_name_H-M_alt    "P 1"
_space_group_IT_number       1

loop_
  _space_group_symop_operation_xyz
  'x, y, z'

loop_
  _atom_site_type_symbol
  _atom_site_label
  _atom_site_symmetry_multiplicity
  _atom_site_fract_x
  _atom_site_fract_y
  _atom_site_fract_z
  _atom_site_occupancy
  V   V1        1.0  0.24999985396331387  0.2500003517768854  0.2500000315027119  1.0000
  V   V2        1.0  0.7500001019983401  0.749999723735277  0.750000236499823  1.0000
  Au  Au1       1.0  0.9999999936912585  3.1758663646038304e-08  0.9999999650486024  1.0000
  F   F1        1.0  0.27058737240388375  0.27058745526675937  0.7294125535535075  1.0000
  F   F2        1.0  0.7294126297463976  0.7294125907552219  0.27058721341379993  1.0000
  F   F3        1.0  0.7294125668500744  0.2705875690852344  0.2705872493188094  1.0000
  F   F4        1.0  0.2705873543950464  0.7294124950845515  0.7294127101688379  1.0000
  F   F5        1.0  0.2705873646594976  0.7294122871670242  0.27058753105915545  1.0000
  F   F6        1.0  0.7294127582796607  0.2705875183965043  0.7294125124506966  1.0000
