data_image0
_chemical_formula_structural       V2BeF6
_chemical_formula_sum              "V2 Be1 F6"
_cell_length_a       5.003800801258716
_cell_length_b       5.003800582104321
_cell_length_c       5.003800642544051
_cell_angle_alpha    59.99999977809244
_cell_angle_beta     60.00000035073323
_cell_angle_gamma    59.9999985899569

_space_group_name_H-M_alt    "P 1"
_space_group_IT_number       1

loop_
  _space_group_symop_operation_xyz
  'x, y, z'

loop_
  _atom_site_type_symbol
  _atom_site_label
  _atom_site_symmetry_multiplicity
  _atom_site_fract_x
  _atom_site_fract_y
  _atom_site_fract_z
  _atom_site_occupancy
  V   V1        1.0  0.24999994516145735  0.25000002117153575  0.24999999361189817  1.0000
  V   V2        1.0  0.7499999674642106  0.749999999876245  0.7499999486634363  1.0000
  Be  Be1       1.0  0.9999999107016835  0.9999999632855613  6.100789713762555e-08  1.0000
  F   F1        1.0  0.2409651502201344  0.2409651776940387  0.7590348825494924  1.0000
  F   F2        1.0  0.7590349263884436  0.7590348360108539  0.24096516526607287  1.0000
  F   F3        1.0  0.7590348803765263  0.24096510178897984  0.24096512052562893  1.0000
  F   F4        1.0  0.24096518091841887  0.7590348678585852  0.7590348530544098  1.0000
  F   F5        1.0  0.24096513986750853  0.7590349119527269  0.24096509712267378  1.0000
  F   F6        1.0  0.7590348771381801  0.24096512133320008  0.7590348867676218  1.0000
