data_image0
_chemical_formula_structural       V2BeCl6
_chemical_formula_sum              "V2 Be1 Cl6"
_cell_length_a       6.278423324648449
_cell_length_b       6.278423354645668
_cell_length_c       6.278423359419126
_cell_angle_alpha    60.0000005626482
_cell_angle_beta     60.000000709793596
_cell_angle_gamma    60.000000617459534

_space_group_name_H-M_alt    "P 1"
_space_group_IT_number       1

loop_
  _space_group_symop_operation_xyz
  'x, y, z'

loop_
  _atom_site_type_symbol
  _atom_site_label
  _atom_site_symmetry_multiplicity
  _atom_site_fract_x
  _atom_site_fract_y
  _atom_site_fract_z
  _atom_site_occupancy
  V   V1        1.0  0.2500000843603891  0.2500000256148319  0.24999994944917708  1.0000
  V   V2        1.0  0.7500000142713277  0.7499999656534317  0.7500001029858091  1.0000
  Be  Be1       1.0  0.9999999723010834  5.852161101478452e-09  0.9999999774754899  1.0000
  Cl  Cl1       1.0  0.2477808609798419  0.2477809267223375  0.7522190914940439  1.0000
  Cl  Cl2       1.0  0.752219138560531  0.7522190528416031  0.24778088732549367  1.0000
  Cl  Cl3       1.0  0.7522190941184641  0.24778093253873046  0.2477808896173913  1.0000
  Cl  Cl4       1.0  0.24778089232468373  0.7522190587295327  0.7522191106044327  1.0000
  Cl  Cl5       1.0  0.2477809013975319  0.7522191116905925  0.24778088408914054  1.0000
  Cl  Cl6       1.0  0.7522190549497247  0.24778091469063812  0.7522190881400403  1.0000
