data_image0
_chemical_formula_structural       V2BeBr6
_chemical_formula_sum              "V2 Be1 Br6"
_cell_length_a       6.786052921122396
_cell_length_b       6.7860528556480135
_cell_length_c       6.786053023304006
_cell_angle_alpha    59.99999967755249
_cell_angle_beta     59.99999945056462
_cell_angle_gamma    60.00000016349884

_space_group_name_H-M_alt    "P 1"
_space_group_IT_number       1

loop_
  _space_group_symop_operation_xyz
  'x, y, z'

loop_
  _atom_site_type_symbol
  _atom_site_label
  _atom_site_symmetry_multiplicity
  _atom_site_fract_x
  _atom_site_fract_y
  _atom_site_fract_z
  _atom_site_occupancy
  V   V1        1.0  0.24999995537668135  0.24999999985990523  0.2499999876095192  1.0000
  V   V2        1.0  0.7500000535101744  0.7499999887509351  0.7500000381236647  1.0000
  Be  Be1       1.0  7.92400548696446e-09  0.9999999711232459  7.529152894169869e-09  1.0000
  Br  Br1       1.0  0.24714869952471621  0.2471487679890745  0.7528512459540265  1.0000
  Br  Br2       1.0  0.7528513655997571  0.7528512458889253  0.24714863145319166  1.0000
  Br  Br3       1.0  0.7528512371034913  0.2471487662134647  0.24714879556994288  1.0000
  Br  Br4       1.0  0.2471486603195634  0.7528513270756092  0.7528513337615493  1.0000
  Br  Br5       1.0  0.2471487340756219  0.7528512393153637  0.24714873009804583  1.0000
  Br  Br6       1.0  0.7528513062831105  0.24714867529879403  0.7528512446906189  1.0000
