data_image0
_chemical_formula_structural       V2BeI6
_chemical_formula_sum              "V2 Be1 I6"
_cell_length_a       7.436773349974943
_cell_length_b       7.436773407873637
_cell_length_c       7.436773384703441
_cell_angle_alpha    60.00000034869791
_cell_angle_beta     59.99999988998489
_cell_angle_gamma    60.000000745467446

_space_group_name_H-M_alt    "P 1"
_space_group_IT_number       1

loop_
  _space_group_symop_operation_xyz
  'x, y, z'

loop_
  _atom_site_type_symbol
  _atom_site_label
  _atom_site_symmetry_multiplicity
  _atom_site_fract_x
  _atom_site_fract_y
  _atom_site_fract_z
  _atom_site_occupancy
  V   V1        1.0  0.25000001312309084  0.25000001817741785  0.2499999455862107  1.0000
  V   V2        1.0  0.7500000053365926  0.7499999935978172  0.7500000523258381  1.0000
  Be  Be1       1.0  0.9999999842847248  9.881259980714983e-09  1.770836864514048e-08  1.0000
  I   I1        1.0  0.24648904900817567  0.24648900027434203  0.7535109779560247  1.0000
  I   I2        1.0  0.7535109513063164  0.7535109588008391  0.24648901234923246  1.0000
  I   I3        1.0  0.7535109710089553  0.24648906154646197  0.24648901842981233  1.0000
  I   I4        1.0  0.24648902187035251  0.7535109617569096  0.7535109757510023  1.0000
  I   I5        1.0  0.24648903651439602  0.7535109637240123  0.24648903804850955  1.0000
  I   I6        1.0  0.7535109572906162  0.24648903816996257  0.7535109569614671  1.0000
