data_image0
_chemical_formula_structural       V2CBr6
_chemical_formula_sum              "V2 C1 Br6"
_cell_length_a       6.895503009857916
_cell_length_b       6.895503102163137
_cell_length_c       6.895503066457393
_cell_angle_alpha    59.999999886469766
_cell_angle_beta     60.00000009120741
_cell_angle_gamma    59.99999958973208

_space_group_name_H-M_alt    "P 1"
_space_group_IT_number       1

loop_
  _space_group_symop_operation_xyz
  'x, y, z'

loop_
  _atom_site_type_symbol
  _atom_site_label
  _atom_site_symmetry_multiplicity
  _atom_site_fract_x
  _atom_site_fract_y
  _atom_site_fract_z
  _atom_site_occupancy
  V   V1        1.0  0.25000006884790044  0.25000001486986667  0.24999985050376863  1.0000
  V   V2        1.0  0.7499998984894677  0.7500000996702548  0.7499999535499917  1.0000
  C   C1        1.0  2.332198543522961e-08  2.1136186693501373e-07  0.9999995549082373  1.0000
  Br  Br1       1.0  0.2497472331146398  0.24974720424293162  0.7502528443415059  1.0000
  Br  Br2       1.0  0.750252748266619  0.7502526420985187  0.2497473884355123  1.0000
  Br  Br3       1.0  0.7502527178235889  0.2497472340164578  0.2497473508012878  1.0000
  Br  Br4       1.0  0.24974728466532178  0.7502527348793515  0.7502528028936222  1.0000
  Br  Br5       1.0  0.24974729531424833  0.7502526572546567  0.24974738714339986  1.0000
  Br  Br6       1.0  0.7502527362025437  0.24974719441524346  0.7502528802611089  1.0000
