data_image0
_chemical_formula_structural       V2CCl6
_chemical_formula_sum              "V2 C1 Cl6"
_cell_length_a       6.534277765841652
_cell_length_b       6.5342774962386985
_cell_length_c       6.534277935775236
_cell_angle_alpha    59.99999962827763
_cell_angle_beta     59.99999936149992
_cell_angle_gamma    59.999999616718625

_space_group_name_H-M_alt    "P 1"
_space_group_IT_number       1

loop_
  _space_group_symop_operation_xyz
  'x, y, z'

loop_
  _atom_site_type_symbol
  _atom_site_label
  _atom_site_symmetry_multiplicity
  _atom_site_fract_x
  _atom_site_fract_y
  _atom_site_fract_z
  _atom_site_occupancy
  V   V1        1.0  0.2500000125695671  0.2500000435922233  0.24999990882603848  1.0000
  V   V2        1.0  0.7500000151125992  0.750000018316354  0.7499999317415107  1.0000
  C   C1        1.0  2.0348158725429342e-08  4.498412411587044e-08  0.9999998005212426  1.0000
  Cl  Cl1       1.0  0.25096710954496326  0.250967161815894  0.7490329010403634  1.0000
  Cl  Cl2       1.0  0.7490327974906548  0.7490328326164956  0.25096722947859795  1.0000
  Cl  Cl3       1.0  0.7490328360766251  0.2509671507598197  0.2509672120488304  1.0000
  Cl  Cl4       1.0  0.2509671208493953  0.749032853044264  0.7490329225076843  1.0000
  Cl  Cl5       1.0  0.2509672000189416  0.749032824253478  0.2509671964117688  1.0000
  Cl  Cl6       1.0  0.7490328822334337  0.25096706334161023  0.7490328953262902  1.0000
