data_image0
_chemical_formula_structural       V2CF6
_chemical_formula_sum              "V2 C1 F6"
_cell_length_a       4.602854025301355
_cell_length_b       2.923858491527014
_cell_length_c       3.4956107828881957
_cell_angle_alpha    51.47125294058418
_cell_angle_beta     47.62709710854381
_cell_angle_gamma    40.50407604095261

_space_group_name_H-M_alt    "P 1"
_space_group_IT_number       1

loop_
  _space_group_symop_operation_xyz
  'x, y, z'

loop_
  _atom_site_type_symbol
  _atom_site_label
  _atom_site_symmetry_multiplicity
  _atom_site_fract_x
  _atom_site_fract_y
  _atom_site_fract_z
  _atom_site_occupancy
  V   V1        1.0  0.6800806808370057  0.42081585866630555  0.8696032734257573  1.0000
  V   V2        1.0  0.2622446234673004  0.3525327483551113  0.9530012496336707  1.0000
  C   C1        1.0  0.4197021713217448  0.11578310273161763  0.6597378256470182  1.0000
  F   F1        1.0  0.15858667625322176  0.36189693336579354  0.17474354294343009  1.0000
  F   F2        1.0  0.2660275026834364  0.43244475803265114  0.974996101590029  1.0000
  F   F3        1.0  0.23780324832672867  0.4411084544163586  0.014349158243376792  1.0000
  F   F4        1.0  0.20488998710580714  0.896283685146932  0.06138112209976887  1.0000
  F   F5        1.0  0.2112767730846805  0.4126913938848342  0.05138357822367534  1.0000
  F   F6        1.0  0.2785036995554076  0.8448640033781134  0.9685986161144827  1.0000
