data_image0
_chemical_formula_structural       V2CI6
_chemical_formula_sum              "V2 C1 I6"
_cell_length_a       7.434807567713055
_cell_length_b       7.4348076299943395
_cell_length_c       7.434807569159676
_cell_angle_alpha    59.999999817807215
_cell_angle_beta     59.999999799147126
_cell_angle_gamma    59.99999946381333

_space_group_name_H-M_alt    "P 1"
_space_group_IT_number       1

loop_
  _space_group_symop_operation_xyz
  'x, y, z'

loop_
  _atom_site_type_symbol
  _atom_site_label
  _atom_site_symmetry_multiplicity
  _atom_site_fract_x
  _atom_site_fract_y
  _atom_site_fract_z
  _atom_site_occupancy
  V   V1        1.0  0.2500000010049731  0.2500000080821017  0.24999998958243178  1.0000
  V   V2        1.0  0.7499999754197866  0.7500000324828658  0.7500000093621499  1.0000
  C   C1        1.0  0.9999999656756885  0.9999999538752606  5.23297481392463e-08  1.0000
  I   I1        1.0  0.25289520865230464  0.25289521787301633  0.7471047708179731  1.0000
  I   I2        1.0  0.7471048127343306  0.7471047996295812  0.25289518220621293  1.0000
  I   I3        1.0  0.7471047911155219  0.2528952339981836  0.2528951785201899  1.0000
  I   I4        1.0  0.25289520907680657  0.7471047818571019  0.7471048101352509  1.0000
  I   I5        1.0  0.25289523746453574  0.7471047741473232  0.2528951964110334  1.0000
  I   I6        1.0  0.7471047971005967  0.2528952038197833  0.7471048007272183  1.0000
