data_image0
_chemical_formula_structural       V2CO6
_chemical_formula_sum              "V2 C1 O6"
_cell_length_a       4.5420286150605715
_cell_length_b       4.54202987127904
_cell_length_c       4.542028731368309
_cell_angle_alpha    59.99999999587926
_cell_angle_beta     59.99999749542368
_cell_angle_gamma    59.99999666854723

_space_group_name_H-M_alt    "P 1"
_space_group_IT_number       1

loop_
  _space_group_symop_operation_xyz
  'x, y, z'

loop_
  _atom_site_type_symbol
  _atom_site_label
  _atom_site_symmetry_multiplicity
  _atom_site_fract_x
  _atom_site_fract_y
  _atom_site_fract_z
  _atom_site_occupancy
  V   V1        1.0  0.2500000239202143  0.24999989336289136  0.2499998979890517  1.0000
  V   V2        1.0  0.7499996918054211  0.749999874234544  0.7500000510709449  1.0000
  C   C1        1.0  0.9999999808956461  0.9999999352847342  0.9999998195422203  1.0000
  O   O1        1.0  0.2333478146639851  0.23334739948134445  0.7666524543147335  1.0000
  O   O2        1.0  0.7666523290816538  0.7666525865301079  0.23334762727171807  1.0000
  O   O3        1.0  0.766652607375849  0.2333474989995009  0.23334762619726251  1.0000
  O   O4        1.0  0.23334750647955477  0.7666524546543108  0.7666524843114702  1.0000
  O   O5        1.0  0.2333476518608372  0.7666524799583955  0.23334768575304782  1.0000
  O   O6        1.0  0.7666524630166169  0.23334777570006895  0.766652495609908  1.0000
