data_image0
_chemical_formula_structural       V2CoSe6
_chemical_formula_sum              "V2 Co1 Se6"
_cell_length_a       6.139410348092939
_cell_length_b       6.139410479973309
_cell_length_c       6.139410531192214
_cell_angle_alpha    60.000001315375215
_cell_angle_beta     60.00000191958421
_cell_angle_gamma    60.000002759500404

_space_group_name_H-M_alt    "P 1"
_space_group_IT_number       1

loop_
  _space_group_symop_operation_xyz
  'x, y, z'

loop_
  _atom_site_type_symbol
  _atom_site_label
  _atom_site_symmetry_multiplicity
  _atom_site_fract_x
  _atom_site_fract_y
  _atom_site_fract_z
  _atom_site_occupancy
  V   V1        1.0  0.2500002367272465  0.249999969224421  0.24999980199439  1.0000
  V   V2        1.0  0.7500000275457456  0.7499999356017157  0.750000308310693  1.0000
  Co  Co1       1.0  0.9999999363950552  0.9999999820459887  0.9999999772554625  1.0000
  Se  Se1       1.0  0.2627419248224893  0.2627421432052376  0.7372578851373355  1.0000
  Se  Se2       1.0  0.7372579532343259  0.7372581246908675  0.262741909347853  1.0000
  Se  Se3       1.0  0.7372579820940472  0.26274200357758076  0.2627420611481527  1.0000
  Se  Se4       1.0  0.2627419342700247  0.7372578334222899  0.7372580974000699  1.0000
  Se  Se5       1.0  0.2627421221624683  0.7372580574904597  0.26274188940315985  1.0000
  Se  Se6       1.0  0.7372578587159075  0.26274194708017007  0.7372580928361624  1.0000
