data_image0
_chemical_formula_structural       V2CoCl6
_chemical_formula_sum              "V2 Co1 Cl6"
_cell_length_a       6.3595898447653605
_cell_length_b       6.359589878586154
_cell_length_c       6.359589908026189
_cell_angle_alpha    59.9999997645121
_cell_angle_beta     60.00000065418147
_cell_angle_gamma    59.99999957974288

_space_group_name_H-M_alt    "P 1"
_space_group_IT_number       1

loop_
  _space_group_symop_operation_xyz
  'x, y, z'

loop_
  _atom_site_type_symbol
  _atom_site_label
  _atom_site_symmetry_multiplicity
  _atom_site_fract_x
  _atom_site_fract_y
  _atom_site_fract_z
  _atom_site_occupancy
  V   V1        1.0  0.25000003984509556  0.25000004597124276  0.24999997860447323  1.0000
  V   V2        1.0  0.7500001164389628  0.7499999511088319  0.7499999521426082  1.0000
  Co  Co1       1.0  3.7377281753845974e-08  7.703294749607466e-09  0.9999999239971452  1.0000
  Cl  Cl1       1.0  0.24980787015564962  0.24980799088153158  0.7501920699201433  1.0000
  Cl  Cl2       1.0  0.7501920592780532  0.7501920004210729  0.24980802903098762  1.0000
  Cl  Cl3       1.0  0.7501919993831797  0.24980801232113165  0.24980796186677495  1.0000
  Cl  Cl4       1.0  0.24980793898100775  0.7501920502369492  0.7501920152250969  1.0000
  Cl  Cl5       1.0  0.24980794030926107  0.7501920313791676  0.24980794796888645  1.0000
  Cl  Cl6       1.0  0.7501920094462812  0.24980790985202148  0.7501921092496092  1.0000
