data_image0
_chemical_formula_structural       V2CoS6
_chemical_formula_sum              "V2 Co1 S6"
_cell_length_a       5.884731660231578
_cell_length_b       5.884731610373008
_cell_length_c       5.8847316474233695
_cell_angle_alpha    60.00000019741453
_cell_angle_beta     59.99999924426747
_cell_angle_gamma    59.99999860942879

_space_group_name_H-M_alt    "P 1"
_space_group_IT_number       1

loop_
  _space_group_symop_operation_xyz
  'x, y, z'

loop_
  _atom_site_type_symbol
  _atom_site_label
  _atom_site_symmetry_multiplicity
  _atom_site_fract_x
  _atom_site_fract_y
  _atom_site_fract_z
  _atom_site_occupancy
  V   V1        1.0  0.24999994690775518  0.2500000426676812  0.25000003097315343  1.0000
  V   V2        1.0  0.7500000192458977  0.7499999927234351  0.7499999625419259  1.0000
  Co  Co1       1.0  3.4408180951884413e-08  0.9999999791877522  0.9999999422226482  1.0000
  S   S1        1.0  0.25767209123395834  0.2576720275517077  0.742327931726579  1.0000
  S   S2        1.0  0.7423279509115256  0.7423279329153187  0.2576720867443215  1.0000
  S   S3        1.0  0.7423279168354424  0.2576720834768547  0.2576720288265832  1.0000
  S   S4        1.0  0.2576719989743955  0.7423279852138576  0.7423280020989242  1.0000
  S   S5        1.0  0.2576720592270185  0.74232794608823  0.2576720223462821  1.0000
  S   S6        1.0  0.7423279905292007  0.2576720268661444  0.7423279792783254  1.0000
