data_image0
_chemical_formula_structural       V2CoF6
_chemical_formula_sum              "V2 Co1 F6"
_cell_length_a       5.160300164171387
_cell_length_b       5.160300061289255
_cell_length_c       5.160300326435927
_cell_angle_alpha    60.00000116879753
_cell_angle_beta     59.99999988318972
_cell_angle_gamma    60.00000067676104

_space_group_name_H-M_alt    "P 1"
_space_group_IT_number       1

loop_
  _space_group_symop_operation_xyz
  'x, y, z'

loop_
  _atom_site_type_symbol
  _atom_site_label
  _atom_site_symmetry_multiplicity
  _atom_site_fract_x
  _atom_site_fract_y
  _atom_site_fract_z
  _atom_site_occupancy
  V   V1        1.0  0.25000003556255107  0.24999991551473358  0.2500001007654104  1.0000
  V   V2        1.0  0.7499999140391602  0.7500001096741636  0.749999852735622  1.0000
  Co  Co1       1.0  0.9999999763358811  0.9999999501586293  0.9999999824923358  1.0000
  F   F1        1.0  0.25145919675154554  0.2514591310513035  0.7485407781076971  1.0000
  F   F2        1.0  0.7485408631509788  0.7485408988843951  0.251459249644805  1.0000
  F   F3        1.0  0.7485408216051436  0.2514591453120188  0.25145919522919663  1.0000
  F   F4        1.0  0.25145913511676304  0.7485408585162955  0.7485408932915618  1.0000
  F   F5        1.0  0.25145916267314583  0.7485408559535837  0.25145913598635083  1.0000
  F   F6        1.0  0.7485408702649914  0.2514591407545332  0.748540840471523  1.0000
