data_image0
_chemical_formula_structural       V2CoBr6
_chemical_formula_sum              "V2 Co1 Br6"
_cell_length_a       6.835594916297758
_cell_length_b       6.835594826643718
_cell_length_c       6.83559487036015
_cell_angle_alpha    59.99999972108722
_cell_angle_beta     59.99999943041807
_cell_angle_gamma    59.999999628432306

_space_group_name_H-M_alt    "P 1"
_space_group_IT_number       1

loop_
  _space_group_symop_operation_xyz
  'x, y, z'

loop_
  _atom_site_type_symbol
  _atom_site_label
  _atom_site_symmetry_multiplicity
  _atom_site_fract_x
  _atom_site_fract_y
  _atom_site_fract_z
  _atom_site_occupancy
  V   V1        1.0  0.2500000219723943  0.24999996266394636  0.24999998774542134  1.0000
  V   V2        1.0  0.7499999600391425  0.7499999775776693  0.749999997715118  1.0000
  Co  Co1       1.0  3.199321512265875e-08  5.375149897977962e-09  4.722704777028477e-09  1.0000
  Br  Br1       1.0  0.2496507349441071  0.24965071700211477  0.7503492840564797  1.0000
  Br  Br2       1.0  0.7503492609385385  0.7503492931164485  0.24965073999120713  1.0000
  Br  Br3       1.0  0.7503492536864886  0.24965075989801083  0.24965072962790041  1.0000
  Br  Br4       1.0  0.24965075093221886  0.7503492645542855  0.7503492653297232  1.0000
  Br  Br5       1.0  0.24965073711016597  0.7503492723969086  0.249650727093622  1.0000
  Br  Br6       1.0  0.7503492544893376  0.24965075563882086  0.750349253563791  1.0000
