data_image0
_chemical_formula_structural       V2CoI6
_chemical_formula_sum              "V2 Co1 I6"
_cell_length_a       7.430556584344696
_cell_length_b       7.4305565536582945
_cell_length_c       7.430556604748751
_cell_angle_alpha    60.00000094165462
_cell_angle_beta     59.99999988642736
_cell_angle_gamma    59.99999951548839

_space_group_name_H-M_alt    "P 1"
_space_group_IT_number       1

loop_
  _space_group_symop_operation_xyz
  'x, y, z'

loop_
  _atom_site_type_symbol
  _atom_site_label
  _atom_site_symmetry_multiplicity
  _atom_site_fract_x
  _atom_site_fract_y
  _atom_site_fract_z
  _atom_site_occupancy
  V   V1        1.0  0.24999996522650808  0.24999999501820733  0.2500000055744807  1.0000
  V   V2        1.0  0.7499999928267272  0.7500000246127317  0.750000060071705  1.0000
  Co  Co1       1.0  0.9999999994505819  1.6482541756375547e-09  0.9999999711889037  1.0000
  I   I1        1.0  0.24906701951353802  0.24906698248669037  0.7509330032102177  1.0000
  I   I2        1.0  0.7509329988005664  0.7509330008826468  0.2490669696886819  1.0000
  I   I3        1.0  0.7509329958763896  0.24906702364820887  0.24906697827947522  1.0000
  I   I4        1.0  0.24906699663123283  0.7509330091687655  0.7509330124063198  1.0000
  I   I5        1.0  0.24906700703044424  0.7509329876400112  0.24906700599336612  1.0000
  I   I6        1.0  0.7509330229937992  0.24906697924678084  0.7509329948618263  1.0000
