data_image0
_chemical_formula_structural       V2CoO6
_chemical_formula_sum              "V2 Co1 O6"
_cell_length_a       4.942574686056677
_cell_length_b       4.942574816273077
_cell_length_c       4.94257488928689
_cell_angle_alpha    59.99999985302925
_cell_angle_beta     59.99999942259063
_cell_angle_gamma    59.99999994353062

_space_group_name_H-M_alt    "P 1"
_space_group_IT_number       1

loop_
  _space_group_symop_operation_xyz
  'x, y, z'

loop_
  _atom_site_type_symbol
  _atom_site_label
  _atom_site_symmetry_multiplicity
  _atom_site_fract_x
  _atom_site_fract_y
  _atom_site_fract_z
  _atom_site_occupancy
  V   V1        1.0  0.2499997062187561  0.25000013068619165  0.25000009487201186  1.0000
  V   V2        1.0  0.750000166532093  0.7499994281363803  0.7500002770342521  1.0000
  Co  Co1       1.0  5.781881287226528e-09  0.9999999826543564  1.1851591882775843e-08  1.0000
  O   O1        1.0  0.2581235412572592  0.2581238096303281  0.7418763046384599  1.0000
  O   O2        1.0  0.7418763935715229  0.7418762918630911  0.2581236091041728  1.0000
  O   O3        1.0  0.7418764961957605  0.2581238720669226  0.25812338484247316  1.0000
  O   O4        1.0  0.2581236030883932  0.7418763037649685  0.7418763852243959  1.0000
  O   O5        1.0  0.25812363500637414  0.7418763157117604  0.25812363651340364  1.0000
  O   O6        1.0  0.7418764568439333  0.25812388242167256  0.7418762556067805  1.0000
