data_image0
_chemical_formula_structural       V2CrO6
_chemical_formula_sum              "V2 Cr1 O6"
_cell_length_a       5.287641084811162
_cell_length_b       5.287641502119124
_cell_length_c       5.287640823984328
_cell_angle_alpha    60.00000306867408
_cell_angle_beta     60.00000284249781
_cell_angle_gamma    60.00000131869554

_space_group_name_H-M_alt    "P 1"
_space_group_IT_number       1

loop_
  _space_group_symop_operation_xyz
  'x, y, z'

loop_
  _atom_site_type_symbol
  _atom_site_label
  _atom_site_symmetry_multiplicity
  _atom_site_fract_x
  _atom_site_fract_y
  _atom_site_fract_z
  _atom_site_occupancy
  V   V1        1.0  0.24999429676724755  0.25000144507591754  0.25000309139358773  1.0000
  V   V2        1.0  0.7500025465861224  0.7500034110472982  0.7500073310991384  1.0000
  Cr  Cr1       1.0  5.786055164300172e-08  0.999999905034151  0.9999997764787191  1.0000
  O   O1        1.0  0.24417369818028106  0.24417293952649963  0.7558259353275295  1.0000
  O   O2        1.0  0.7558276577734376  0.7558254149103939  0.24416967503706888  1.0000
  O   O3        1.0  0.7558274491445371  0.24417426436922246  0.2441714605586006  1.0000
  O   O4        1.0  0.24417177206672497  0.7558257183846114  0.7558262942213076  1.0000
  O   O5        1.0  0.24417363835087677  0.755826887969942  0.2441726973994504  1.0000
  O   O6        1.0  0.7558288301164418  0.2441700026030485  0.7558237846028742  1.0000
