data_image0
_chemical_formula_structural       V2CrTe6
_chemical_formula_sum              "V2 Cr1 Te6"
_cell_length_a       6.993577661163551
_cell_length_b       6.993577711730806
_cell_length_c       6.993577654852421
_cell_angle_alpha    59.999999767950214
_cell_angle_beta     59.99999999021283
_cell_angle_gamma    59.999999840300056

_space_group_name_H-M_alt    "P 1"
_space_group_IT_number       1

loop_
  _space_group_symop_operation_xyz
  'x, y, z'

loop_
  _atom_site_type_symbol
  _atom_site_label
  _atom_site_symmetry_multiplicity
  _atom_site_fract_x
  _atom_site_fract_y
  _atom_site_fract_z
  _atom_site_occupancy
  V   V1        1.0  0.2500001040714678  0.24999993737432014  0.24999997862349738  1.0000
  V   V2        1.0  0.7500000040247432  0.7500000135158194  0.7499999849792423  1.0000
  Cr  Cr1       1.0  2.4849276800275916e-08  2.4517391412234643e-08  0.9999999738867825  1.0000
  Te  Te1       1.0  0.2585505344981781  0.258550551736936  0.7414494622814473  1.0000
  Te  Te2       1.0  0.7414494349725096  0.7414494534417133  0.25855055921851566  1.0000
  Te  Te3       1.0  0.7414494084023633  0.2585505539387114  0.25855055382184394  1.0000
  Te  Te4       1.0  0.25855054252292997  0.7414494424837268  0.7414494727496218  1.0000
  Te  Te5       1.0  0.2585505312351408  0.741449452159438  0.2585505358915066  1.0000
  Te  Te6       1.0  0.7414494196729685  0.25855057403411846  0.7414494758029918  1.0000
