data_image0
_chemical_formula_structural       V2CrS6
_chemical_formula_sum              "V2 Cr1 S6"
_cell_length_a       5.920044868184307
_cell_length_b       5.920044762054589
_cell_length_c       5.920044988759343
_cell_angle_alpha    59.99999939111636
_cell_angle_beta     59.9999994757826
_cell_angle_gamma    59.99999927133694

_space_group_name_H-M_alt    "P 1"
_space_group_IT_number       1

loop_
  _space_group_symop_operation_xyz
  'x, y, z'

loop_
  _atom_site_type_symbol
  _atom_site_label
  _atom_site_symmetry_multiplicity
  _atom_site_fract_x
  _atom_site_fract_y
  _atom_site_fract_z
  _atom_site_occupancy
  V   V1        1.0  0.2499999929650398  0.249999993742418  0.2500000226345577  1.0000
  V   V2        1.0  0.7500000468480196  0.7499999295069987  0.7499999077614787  1.0000
  Cr  Cr1       1.0  0.9999999960212975  0.9999999358668845  5.339910674076556e-09  1.0000
  S   S1        1.0  0.2626647446526581  0.26266474205711776  0.7373353023760498  1.0000
  S   S2        1.0  0.737335294528214  0.7373352825639986  0.26266476177045334  1.0000
  S   S3        1.0  0.7373352688646081  0.2626647484793602  0.2626647027004632  1.0000
  S   S4        1.0  0.26266466666290567  0.7373353588941622  0.7373352587217007  1.0000
  S   S5        1.0  0.26266470023731403  0.7373352852827421  0.2626647238144231  1.0000
  S   S6        1.0  0.737335309706465  0.262664704168601  0.7373353167926934  1.0000
