data_image0
_chemical_formula_structural       V2CS6
_chemical_formula_sum              "V2 C1 S6"
_cell_length_a       5.784241809590859
_cell_length_b       5.784241891716948
_cell_length_c       5.784241542595291
_cell_angle_alpha    60.000001458593076
_cell_angle_beta     60.00000135686943
_cell_angle_gamma    59.99999877161846

_space_group_name_H-M_alt    "P 1"
_space_group_IT_number       1

loop_
  _space_group_symop_operation_xyz
  'x, y, z'

loop_
  _atom_site_type_symbol
  _atom_site_label
  _atom_site_symmetry_multiplicity
  _atom_site_fract_x
  _atom_site_fract_y
  _atom_site_fract_z
  _atom_site_occupancy
  V   V1        1.0  0.25000004786198493  0.2500000177798995  0.24999992758252473  1.0000
  V   V2        1.0  0.7500000526252077  0.7499999728791911  0.750000010222683  1.0000
  C   C1        1.0  1.359309270224558e-07  0.9999998856613793  0.999999741980423  1.0000
  S   S1        1.0  0.239557001365435  0.23955713690281422  0.7604429931021567  1.0000
  S   S2        1.0  0.7604428566230755  0.7604428685779553  0.23955713806796886  1.0000
  S   S3        1.0  0.7604427504794169  0.2395572637891823  0.23955710112457448  1.0000
  S   S4        1.0  0.2395569119074076  0.7604430889422105  0.7604430475781784  1.0000
  S   S5        1.0  0.23955720216545467  0.7604428376985586  0.23955698660595823  1.0000
  S   S6        1.0  0.7604430408885565  0.23955693487020066  0.7604429906898414  1.0000
