data_image0
_chemical_formula_structural       V2CuCl6
_chemical_formula_sum              "V2 Cu1 Cl6"
_cell_length_a       6.443605166179907
_cell_length_b       6.4436052894590246
_cell_length_c       6.443605205386091
_cell_angle_alpha    59.99999983381611
_cell_angle_beta     60.00000012510041
_cell_angle_gamma    60.000000211332704

_space_group_name_H-M_alt    "P 1"
_space_group_IT_number       1

loop_
  _space_group_symop_operation_xyz
  'x, y, z'

loop_
  _atom_site_type_symbol
  _atom_site_label
  _atom_site_symmetry_multiplicity
  _atom_site_fract_x
  _atom_site_fract_y
  _atom_site_fract_z
  _atom_site_occupancy
  V   V1        1.0  0.2500001341461775  0.2499999403403416  0.2499999680336961  1.0000
  V   V2        1.0  0.7499999741635764  0.7499999768795467  0.7500000108227052  1.0000
  Cu  Cu1       1.0  1.447248856053904e-09  4.94185556117352e-08  0.9999999776709501  1.0000
  Cl  Cl1       1.0  0.2528424972193281  0.2528425524770555  0.7471574551741716  1.0000
  Cl  Cl2       1.0  0.747157412447467  0.7471574445728073  0.25284258774449936  1.0000
  Cl  Cl3       1.0  0.7471574217773235  0.25284254281229623  0.25284251191319435  1.0000
  Cl  Cl4       1.0  0.2528425392241927  0.7471574561382802  0.7471574935242759  1.0000
  Cl  Cl5       1.0  0.25284250365909244  0.7471575418284316  0.25284250215413473  1.0000
  Cl  Cl6       1.0  0.7471575024314857  0.2528425046399867  0.7471574833626295  1.0000
