data_image0
_chemical_formula_structural       V2CuF6
_chemical_formula_sum              "V2 Cu1 F6"
_cell_length_a       5.081008787985047
_cell_length_b       5.081008518694856
_cell_length_c       5.081008899146091
_cell_angle_alpha    59.99999933435818
_cell_angle_beta     59.99999998933826
_cell_angle_gamma    59.999999549244066

_space_group_name_H-M_alt    "P 1"
_space_group_IT_number       1

loop_
  _space_group_symop_operation_xyz
  'x, y, z'

loop_
  _atom_site_type_symbol
  _atom_site_label
  _atom_site_symmetry_multiplicity
  _atom_site_fract_x
  _atom_site_fract_y
  _atom_site_fract_z
  _atom_site_occupancy
  V   V1        1.0  0.2500000781780742  0.24999994862205271  0.24999995012297993  1.0000
  V   V2        1.0  0.7500001054302482  0.7500000218280286  0.7499998466211242  1.0000
  Cu  Cu1       1.0  0.9999999767464192  0.9999999879478175  5.307891657804387e-08  1.0000
  F   F1        1.0  0.26020160083959015  0.26020166769643965  0.7397983511829246  1.0000
  F   F2        1.0  0.7397982760371593  0.739798418454599  0.26020174772835897  1.0000
  F   F3        1.0  0.7397983826564781  0.26020163139662705  0.2602016409184248  1.0000
  F   F4        1.0  0.2602016336985125  0.7397983703891308  0.7397983576161948  1.0000
  F   F5        1.0  0.26020158884608513  0.7397983787068497  0.26020168192587206  1.0000
  F   F6        1.0  0.7397983419779491  0.2602015796910492  0.7397984027173979  1.0000
