data_image0
_chemical_formula_structural       V2CuBr6
_chemical_formula_sum              "V2 Cu1 Br6"
_cell_length_a       6.884425561101812
_cell_length_b       6.88442549710108
_cell_length_c       6.884425513026867
_cell_angle_alpha    60.000000215943594
_cell_angle_beta     60.0000005713143
_cell_angle_gamma    60.00000018352438

_space_group_name_H-M_alt    "P 1"
_space_group_IT_number       1

loop_
  _space_group_symop_operation_xyz
  'x, y, z'

loop_
  _atom_site_type_symbol
  _atom_site_label
  _atom_site_symmetry_multiplicity
  _atom_site_fract_x
  _atom_site_fract_y
  _atom_site_fract_z
  _atom_site_occupancy
  V   V1        1.0  0.24999995950414838  0.2499999530917775  0.2500000352361613  1.0000
  V   V2        1.0  0.7500000282104542  0.7499999838058994  0.7499999540686565  1.0000
  Cu  Cu1       1.0  0.9999999934944269  0.9999999893259515  4.19985533819665e-08  1.0000
  Br  Br1       1.0  0.2528505161478642  0.25285046590031696  0.7471495300811889  1.0000
  Br  Br2       1.0  0.7471494879992451  0.7471495474947083  0.2528504853864029  1.0000
  Br  Br3       1.0  0.7471494996571096  0.2528504928352478  0.25285051789904145  1.0000
  Br  Br4       1.0  0.25285048939461563  0.7471495205597773  0.7471494688023917  1.0000
  Br  Br5       1.0  0.2528505023328451  0.7471495320096435  0.2528504953426822  1.0000
  Br  Br6       1.0  0.7471495151131838  0.25285051696554345  0.7471494826123827  1.0000
