data_image0
_chemical_formula_structural       V2CuI6
_chemical_formula_sum              "V2 Cu1 I6"
_cell_length_a       7.448979571129767
_cell_length_b       7.448979590397193
_cell_length_c       7.448979606339464
_cell_angle_alpha    60.0000004997409
_cell_angle_beta     60.00000035035429
_cell_angle_gamma    60.00000061238943

_space_group_name_H-M_alt    "P 1"
_space_group_IT_number       1

loop_
  _space_group_symop_operation_xyz
  'x, y, z'

loop_
  _atom_site_type_symbol
  _atom_site_label
  _atom_site_symmetry_multiplicity
  _atom_site_fract_x
  _atom_site_fract_y
  _atom_site_fract_z
  _atom_site_occupancy
  V   V1        1.0  0.2500000114109975  0.2499999484837085  0.250000000183003  1.0000
  V   V2        1.0  0.7500000160663681  0.7500000394641337  0.7499999569271877  1.0000
  Cu  Cu1       1.0  0.9999999986996839  4.1104450923074655e-08  0.9999999854677958  1.0000
  I   I1        1.0  0.2547640206586127  0.2547640273335808  0.7452359745420397  1.0000
  I   I2        1.0  0.7452359739835921  0.745235975411864  0.25476402649103946  1.0000
  I   I3        1.0  0.7452359706598711  0.2547640243817687  0.25476402877029775  1.0000
  I   I4        1.0  0.2547640070247608  0.7452359734311419  0.745235993947561  1.0000
  I   I5        1.0  0.2547640225044568  0.7452359613329499  0.2547640319240583  1.0000
  I   I6        1.0  0.7452359830049029  0.2547640134614685  0.7452359937605457  1.0000
