data_image0
_chemical_formula_structural       V2FeS6
_chemical_formula_sum              "V2 Fe1 S6"
_cell_length_a       5.852406949256631
_cell_length_b       5.852406901891711
_cell_length_c       5.852407110967492
_cell_angle_alpha    60.00000041159286
_cell_angle_beta     59.99999904428948
_cell_angle_gamma    60.00000169896871

_space_group_name_H-M_alt    "P 1"
_space_group_IT_number       1

loop_
  _space_group_symop_operation_xyz
  'x, y, z'

loop_
  _atom_site_type_symbol
  _atom_site_label
  _atom_site_symmetry_multiplicity
  _atom_site_fract_x
  _atom_site_fract_y
  _atom_site_fract_z
  _atom_site_occupancy
  V   V1        1.0  0.2500000141673161  0.24999993040828108  0.25000001091123447  1.0000
  V   V2        1.0  0.7499999456008662  0.7499999753841934  0.7499998763304623  1.0000
  Fe  Fe1       1.0  3.993944399979797e-08  0.999999974887361  0.9999999601213232  1.0000
  S   S1        1.0  0.25910313777907856  0.25910312910043926  0.7408968198811429  1.0000
  S   S2        1.0  0.7408968683023384  0.7408969692222721  0.25910306583902554  1.0000
  S   S3        1.0  0.7408967555147274  0.2591031930638131  0.2591032583906719  1.0000
  S   S4        1.0  0.2591033035206552  0.7408968529409042  0.7408968047161676  1.0000
  S   S5        1.0  0.2591031450790045  0.7408968671824704  0.2591033008505303  1.0000
  S   S6        1.0  0.7408967863075071  0.25910314743144575  0.7408968588631311  1.0000
