data_image0
_chemical_formula_structural       V2FeI6
_chemical_formula_sum              "V2 Fe1 I6"
_cell_length_a       7.392895091281278
_cell_length_b       7.392895088132777
_cell_length_c       7.392895163058814
_cell_angle_alpha    60.000000210918365
_cell_angle_beta     59.99999995806941
_cell_angle_gamma    60.00000015234561

_space_group_name_H-M_alt    "P 1"
_space_group_IT_number       1

loop_
  _space_group_symop_operation_xyz
  'x, y, z'

loop_
  _atom_site_type_symbol
  _atom_site_label
  _atom_site_symmetry_multiplicity
  _atom_site_fract_x
  _atom_site_fract_y
  _atom_site_fract_z
  _atom_site_occupancy
  V   V1        1.0  0.25000002116406134  0.24999993902449041  0.2500000172004201  1.0000
  V   V2        1.0  0.7500000037579946  0.7500000009617572  0.7500000206351639  1.0000
  Fe  Fe1       1.0  7.495569796988925e-09  0.9999999072275317  7.5102050025399e-08  1.0000
  I   I1        1.0  0.23522084408554264  0.23522083012560552  0.7647791612427033  1.0000
  I   I2        1.0  0.7647792352487011  0.7647792324528324  0.2352207637429916  1.0000
  I   I3        1.0  0.7647791650609165  0.23522085398106285  0.2352207895334458  1.0000
  I   I4        1.0  0.235220811203803  0.764779180434304  0.7647791888946956  1.0000
  I   I5        1.0  0.23522079048886296  0.7647791959374338  0.23522081232020697  1.0000
  I   I6        1.0  0.7647791300832106  0.2352208649843528  0.7647791685271971  1.0000
