data_image0
_chemical_formula_structural       V2FeO6
_chemical_formula_sum              "V2 Fe1 O6"
_cell_length_a       5.051507061293073
_cell_length_b       5.051506997270104
_cell_length_c       5.051507154374668
_cell_angle_alpha    60.00000217399287
_cell_angle_beta     60.000001173509574
_cell_angle_gamma    60.00000163045817

_space_group_name_H-M_alt    "P 1"
_space_group_IT_number       1

loop_
  _space_group_symop_operation_xyz
  'x, y, z'

loop_
  _atom_site_type_symbol
  _atom_site_label
  _atom_site_symmetry_multiplicity
  _atom_site_fract_x
  _atom_site_fract_y
  _atom_site_fract_z
  _atom_site_occupancy
  V   V1        1.0  0.24999956718567204  0.2500003091546719  0.2500004419933011  1.0000
  V   V2        1.0  0.7499998472535815  0.7499996230755474  0.7499996632714913  1.0000
  Fe  Fe1       1.0  0.9999999927502488  0.9999999806038894  7.384108697022497e-09  1.0000
  O   O1        1.0  0.24738675493932102  0.24738666410390245  0.7526129426047323  1.0000
  O   O2        1.0  0.7526134018714805  0.752613256003763  0.24738715782408555  1.0000
  O   O3        1.0  0.7526134382013427  0.2473868950050292  0.2473864679401793  1.0000
  O   O4        1.0  0.24738680069015484  0.7526131560263811  0.7526134962923142  1.0000
  O   O5        1.0  0.24738674364535537  0.7526133205008917  0.247386633626038  1.0000
  O   O6        1.0  0.7526134638899125  0.24738677659627661  0.7526131886384014  1.0000
