data_image0
_chemical_formula_structural       V2FeTe6
_chemical_formula_sum              "V2 Fe1 Te6"
_cell_length_a       6.855247986879779
_cell_length_b       6.855247969699705
_cell_length_c       6.855247991623257
_cell_angle_alpha    59.999999191541455
_cell_angle_beta     59.99999920052529
_cell_angle_gamma    59.99999859657248

_space_group_name_H-M_alt    "P 1"
_space_group_IT_number       1

loop_
  _space_group_symop_operation_xyz
  'x, y, z'

loop_
  _atom_site_type_symbol
  _atom_site_label
  _atom_site_symmetry_multiplicity
  _atom_site_fract_x
  _atom_site_fract_y
  _atom_site_fract_z
  _atom_site_occupancy
  V   V1        1.0  0.24999998224271253  0.24999995477921824  0.25000007598471313  1.0000
  V   V2        1.0  0.7500000381762827  0.7500000447822339  0.7499998936196209  1.0000
  Fe  Fe1       1.0  6.690033151805019e-08  0.9999999660549799  0.9999999222554139  1.0000
  Te  Te1       1.0  0.24911622069468758  0.24911621333307724  0.750883787258029  1.0000
  Te  Te2       1.0  0.7508837333523886  0.7508837630028354  0.24911627528333724  1.0000
  Te  Te3       1.0  0.7508837669152373  0.24911621883830096  0.24911622246590626  1.0000
  Te  Te4       1.0  0.24911615783132388  0.7508838807716313  0.7508838266396449  1.0000
  Te  Te5       1.0  0.2491162144962413  0.7508837528757314  0.24911620422100295  1.0000
  Te  Te6       1.0  0.7508838234820252  0.24911620916754074  0.7508838001613047  1.0000
