data_image0
_chemical_formula_structural       V2FeCl6
_chemical_formula_sum              "V2 Fe1 Cl6"
_cell_length_a       6.4790515422455135
_cell_length_b       6.479051635055643
_cell_length_c       6.479051571449994
_cell_angle_alpha    59.99999964334495
_cell_angle_beta     59.99999871023768
_cell_angle_gamma    60.00000036602851

_space_group_name_H-M_alt    "P 1"
_space_group_IT_number       1

loop_
  _space_group_symop_operation_xyz
  'x, y, z'

loop_
  _atom_site_type_symbol
  _atom_site_label
  _atom_site_symmetry_multiplicity
  _atom_site_fract_x
  _atom_site_fract_y
  _atom_site_fract_z
  _atom_site_occupancy
  V   V1        1.0  0.24999990263797595  0.25000009075430635  0.24999985698160263  1.0000
  V   V2        1.0  0.7500000341906663  0.7499998601742429  0.7499999287116746  1.0000
  Fe  Fe1       1.0  0.9999999547961927  3.402567016735063e-08  4.571839898385026e-08  1.0000
  Cl  Cl1       1.0  0.24338339739013848  0.24338354973396514  0.7566165568183006  1.0000
  Cl  Cl2       1.0  0.7566165936243512  0.7566164257686789  0.2433834750306238  1.0000
  Cl  Cl3       1.0  0.7566165402817236  0.24338352718505055  0.2433835088276955  1.0000
  Cl  Cl4       1.0  0.2433835499247524  0.7566164180725532  0.7566165996751313  1.0000
  Cl  Cl5       1.0  0.24338345942986064  0.7566165842822943  0.2433835857671985  1.0000
  Cl  Cl6       1.0  0.7566165804763247  0.2433835065295669  0.7566164334358784  1.0000
