data_image0
_chemical_formula_structural       V2FeBr6
_chemical_formula_sum              "V2 Fe1 Br6"
_cell_length_a       6.900356975860615
_cell_length_b       6.900356913460723
_cell_length_c       6.900356911885751
_cell_angle_alpha    59.99999958201542
_cell_angle_beta     59.999999037348495
_cell_angle_gamma    59.99999959953279

_space_group_name_H-M_alt    "P 1"
_space_group_IT_number       1

loop_
  _space_group_symop_operation_xyz
  'x, y, z'

loop_
  _atom_site_type_symbol
  _atom_site_label
  _atom_site_symmetry_multiplicity
  _atom_site_fract_x
  _atom_site_fract_y
  _atom_site_fract_z
  _atom_site_occupancy
  V   V1        1.0  0.24999996912540157  0.2500000143744753  0.2500000288229705  1.0000
  V   V2        1.0  0.7500000160626251  0.7500000182748153  0.7499999474535789  1.0000
  Fe  Fe1       1.0  0.9999999960789976  0.9999999716015877  8.91370544644072e-09  1.0000
  Br  Br1       1.0  0.2331181762092812  0.2331181788279735  0.7668818235696739  1.0000
  Br  Br2       1.0  0.7668818162987802  0.7668817916997903  0.23311822938043486  1.0000
  Br  Br3       1.0  0.7668818130249739  0.2331181795525479  0.23311820160460245  1.0000
  Br  Br4       1.0  0.23311822307538493  0.7668818158238266  0.7668817693014386  1.0000
  Br  Br5       1.0  0.23311820222728794  0.7668818335874836  0.23311819208502696  1.0000
  Br  Br6       1.0  0.7668817901444338  0.23311820261160843  0.7668817846215755  1.0000
