data_image0
_chemical_formula_structural       V2FeF6
_chemical_formula_sum              "V2 Fe1 F6"
_cell_length_a       5.127660310108835
_cell_length_b       5.127660521140678
_cell_length_c       5.127660347579844
_cell_angle_alpha    59.99999874720598
_cell_angle_beta     60.000000128271864
_cell_angle_gamma    59.99999850135993

_space_group_name_H-M_alt    "P 1"
_space_group_IT_number       1

loop_
  _space_group_symop_operation_xyz
  'x, y, z'

loop_
  _atom_site_type_symbol
  _atom_site_label
  _atom_site_symmetry_multiplicity
  _atom_site_fract_x
  _atom_site_fract_y
  _atom_site_fract_z
  _atom_site_occupancy
  V   V1        1.0  0.25000002152388534  0.24999996824506093  0.24999989333160574  1.0000
  V   V2        1.0  0.7500001571026673  0.7500000122179517  0.749999864718173  1.0000
  Fe  Fe1       1.0  7.551884293026467e-09  0.9999999976114945  0.9999999681652031  1.0000
  F   F1        1.0  0.2605912245431109  0.26059116121299497  0.7394088641066537  1.0000
  F   F2        1.0  0.7394087455421475  0.7394088909051993  0.260591233464977  1.0000
  F   F3        1.0  0.7394088444808725  0.2605911451101312  0.2605912207448133  1.0000
  F   F4        1.0  0.260591165459698  0.7394087063735447  0.7394088772579299  1.0000
  F   F5        1.0  0.26059106437177665  0.7394088489001277  0.26059128993459635  1.0000
  F   F6        1.0  0.7394087625008741  0.2605912342686515  0.7394088052118294  1.0000
