data_image0
_chemical_formula_structural       V2GeI6
_chemical_formula_sum              "V2 Ge1 I6"
_cell_length_a       7.668907768859774
_cell_length_b       7.6689077773477425
_cell_length_c       7.668907726869035
_cell_angle_alpha    60.000001209549836
_cell_angle_beta     60.0000007607175
_cell_angle_gamma    60.00000144486095

_space_group_name_H-M_alt    "P 1"
_space_group_IT_number       1

loop_
  _space_group_symop_operation_xyz
  'x, y, z'

loop_
  _atom_site_type_symbol
  _atom_site_label
  _atom_site_symmetry_multiplicity
  _atom_site_fract_x
  _atom_site_fract_y
  _atom_site_fract_z
  _atom_site_occupancy
  V   V1        1.0  0.2499999945930542  0.2500000034290711  0.25000000090212016  1.0000
  V   V2        1.0  0.7499999718249701  0.7500000054961338  0.7500000032551964  1.0000
  Ge  Ge1       1.0  0.9999999994676578  1.5970263580611688e-09  0.9999999903398913  1.0000
  I   I1        1.0  0.260957534007123  0.2609574971392543  0.7390424879341744  1.0000
  I   I2        1.0  0.7390424941442316  0.7390425117859513  0.2609575179556433  1.0000
  I   I3        1.0  0.7390425122352406  0.26095749235367854  0.26095752877351885  1.0000
  I   I4        1.0  0.26095750645663174  0.7390424862280243  0.7390424852820912  1.0000
  I   I5        1.0  0.26095749225531994  0.739042497870052  0.2609575061994949  1.0000
  I   I6        1.0  0.7390424898432917  0.2609575046670468  0.7390424750560476  1.0000
