data_image0
_chemical_formula_structural       V2GeTe6
_chemical_formula_sum              "V2 Ge1 Te6"
_cell_length_a       7.167771326812466
_cell_length_b       7.167771405015715
_cell_length_c       7.167771434454314
_cell_angle_alpha    59.99999965347029
_cell_angle_beta     60.000000035775535
_cell_angle_gamma    59.999999026513194

_space_group_name_H-M_alt    "P 1"
_space_group_IT_number       1

loop_
  _space_group_symop_operation_xyz
  'x, y, z'

loop_
  _atom_site_type_symbol
  _atom_site_label
  _atom_site_symmetry_multiplicity
  _atom_site_fract_x
  _atom_site_fract_y
  _atom_site_fract_z
  _atom_site_occupancy
  V   V1        1.0  0.25000000036296505  0.24999991093739665  0.25000010952097546  1.0000
  V   V2        1.0  0.7500000538875242  0.7500000335403891  0.750000065301218  1.0000
  Ge  Ge1       1.0  1.1569895631832206e-08  0.9999999846218536  0.9999999460987746  1.0000
  Te  Te1       1.0  0.2661670159489524  0.2661670275006954  0.7338330062038971  1.0000
  Te  Te2       1.0  0.733832925369426  0.7338330382935817  0.2661670137516582  1.0000
  Te  Te3       1.0  0.733832985368329  0.26616704380313533  0.2661669730688514  1.0000
  Te  Te4       1.0  0.26616691831160116  0.7338330527474357  0.7338329456927479  1.0000
  Te  Te5       1.0  0.26616703229462335  0.7338329642452325  0.26616698257243565  1.0000
  Te  Te6       1.0  0.7338330542895871  0.26616694605889507  0.7338329559969855  1.0000
