data_image0
_chemical_formula_structural       V2GeF6
_chemical_formula_sum              "V2 Ge1 F6"
_cell_length_a       7.405188110788301
_cell_length_b       5.131250707977131
_cell_length_c       10.26482542743712
_cell_angle_alpha    54.292537867697135
_cell_angle_beta     32.9256524869373
_cell_angle_gamma    55.21124309736122

_space_group_name_H-M_alt    "P 1"
_space_group_IT_number       1

loop_
  _space_group_symop_operation_xyz
  'x, y, z'

loop_
  _atom_site_type_symbol
  _atom_site_label
  _atom_site_symmetry_multiplicity
  _atom_site_fract_x
  _atom_site_fract_y
  _atom_site_fract_z
  _atom_site_occupancy
  V   V1        1.0  0.1251151774234871  0.2795986348352959  0.14087728580908046  1.0000
  V   V2        1.0  0.6090681266189798  0.9593203097580785  0.7179756233326382  1.0000
  Ge  Ge1       1.0  0.6079584292749203  0.17609344348199119  0.2501577274615147  1.0000
  F   F1        1.0  0.14811333934350435  0.24916308667474255  0.9230053176683878  1.0000
  F   F2        1.0  0.794032289526369  0.7242303760821557  0.22802099527241892  1.0000
  F   F3        1.0  0.7024644893212914  0.03903534671299488  0.4381359272515882  1.0000
  F   F4        1.0  0.5136579186612131  0.538800678733324  0.8537965348535458  1.0000
  F   F5        1.0  0.50620524038631  0.8797124128160857  0.9891465707166225  1.0000
  F   F6        1.0  0.02166879582679382  0.1332824566378631  0.43711440727987766  1.0000
