data_image0
_chemical_formula_structural       V2GeSe6
_chemical_formula_sum              "V2 Ge1 Se6"
_cell_length_a       6.296549824738804
_cell_length_b       6.29655314552718
_cell_length_c       6.296552493637595
_cell_angle_alpha    59.99999291626814
_cell_angle_beta     59.99998596295521
_cell_angle_gamma    60.0000001893977

_space_group_name_H-M_alt    "P 1"
_space_group_IT_number       1

loop_
  _space_group_symop_operation_xyz
  'x, y, z'

loop_
  _atom_site_type_symbol
  _atom_site_label
  _atom_site_symmetry_multiplicity
  _atom_site_fract_x
  _atom_site_fract_y
  _atom_site_fract_z
  _atom_site_occupancy
  V   V1        1.0  0.24999834878067867  0.2500008121163877  0.2500003731736599  1.0000
  V   V2        1.0  0.7500027113484188  0.7499992580491539  0.7500017269343995  1.0000
  Ge  Ge1       1.0  7.598613881034153e-08  0.9999999260860449  1.0219500759776434e-07  1.0000
  Se  Se1       1.0  0.27845504679710736  0.27845627084425484  0.7215440548179013  1.0000
  Se  Se2       1.0  0.7215439508718077  0.7215445676378929  0.27845378650268227  1.0000
  Se  Se3       1.0  0.7215450801364643  0.27845522576406717  0.27845599192766235  1.0000
  Se  Se4       1.0  0.2784546726108553  0.7215440021719306  0.7215445180357385  1.0000
  Se  Se5       1.0  0.2784554563624374  0.7215440938316179  0.2784558026068312  1.0000
  Se  Se6       1.0  0.7215446477139232  0.27845591214589777  0.7215437233941714  1.0000
