data_image0
_chemical_formula_structural       V2GeBr6
_chemical_formula_sum              "V2 Ge1 Br6"
_cell_length_a       6.944792809546876
_cell_length_b       6.9447928799727885
_cell_length_c       6.9447928040300795
_cell_angle_alpha    59.9999995444499
_cell_angle_beta     59.999999331364656
_cell_angle_gamma    59.999998994576025

_space_group_name_H-M_alt    "P 1"
_space_group_IT_number       1

loop_
  _space_group_symop_operation_xyz
  'x, y, z'

loop_
  _atom_site_type_symbol
  _atom_site_label
  _atom_site_symmetry_multiplicity
  _atom_site_fract_x
  _atom_site_fract_y
  _atom_site_fract_z
  _atom_site_occupancy
  V   V1        1.0  0.2500000446797974  0.24999997110174413  0.24999995728356147  1.0000
  V   V2        1.0  0.750000008917248  0.749999964448013  0.7500000254745157  1.0000
  Ge  Ge1       1.0  1.7701691123880262e-08  1.7635439252764323e-09  0.9999999974670212  1.0000
  Br  Br1       1.0  0.25363789033999734  0.25363793004879187  0.7463620992859717  1.0000
  Br  Br2       1.0  0.7463621091087769  0.7463621130771579  0.25363790139590536  1.0000
  Br  Br3       1.0  0.746362069307268  0.25363788999189285  0.2536378839395344  1.0000
  Br  Br4       1.0  0.2536378710917029  0.7463621108089981  0.7463621487107132  1.0000
  Br  Br5       1.0  0.2536379015154898  0.7463621246614718  0.2536378687640154  1.0000
  Br  Br6       1.0  0.7463620884614662  0.2536378920113162  0.7463621196418686  1.0000
