data_image0
_chemical_formula_structural       V2GeS6
_chemical_formula_sum              "V2 Ge1 S6"
_cell_length_a       6.3150223043527065
_cell_length_b       6.315022336032638
_cell_length_c       6.315021815012696
_cell_angle_alpha    60.00000105425831
_cell_angle_beta     60.00000207910765
_cell_angle_gamma    59.99999713301506

_space_group_name_H-M_alt    "P 1"
_space_group_IT_number       1

loop_
  _space_group_symop_operation_xyz
  'x, y, z'

loop_
  _atom_site_type_symbol
  _atom_site_label
  _atom_site_symmetry_multiplicity
  _atom_site_fract_x
  _atom_site_fract_y
  _atom_site_fract_z
  _atom_site_occupancy
  V   V1        1.0  0.24999996704183203  0.2500000890604468  0.24999980674463693  1.0000
  V   V2        1.0  0.7500000441985528  0.7499998599041874  0.7499999007116404  1.0000
  Ge  Ge1       1.0  0.9999999975250303  1.939414710520894e-09  2.0853612919798383e-08  1.0000
  S   S1        1.0  0.2572283636954362  0.25722805085971673  0.7427713585957428  1.0000
  S   S2        1.0  0.7427717043045117  0.7427717662247061  0.2572279145301704  1.0000
  S   S3        1.0  0.7427719782498683  0.25722815228353335  0.25722841031912513  1.0000
  S   S4        1.0  0.2572282373071018  0.7427715018900053  0.7427721198855802  1.0000
  S   S5        1.0  0.2572281221755406  0.7427719970143015  0.25722836569902746  1.0000
  S   S6        1.0  0.7427716112152211  0.25722855510838194  0.7427720072870262  1.0000
