data_image0
_chemical_formula_structural       V2GeO6
_chemical_formula_sum              "V2 Ge1 O6"
_cell_length_a       5.063445399637359
_cell_length_b       5.0634453285662095
_cell_length_c       5.063445383082596
_cell_angle_alpha    59.99999945835528
_cell_angle_beta     59.99999954515677
_cell_angle_gamma    59.99999949516803

_space_group_name_H-M_alt    "P 1"
_space_group_IT_number       1

loop_
  _space_group_symop_operation_xyz
  'x, y, z'

loop_
  _atom_site_type_symbol
  _atom_site_label
  _atom_site_symmetry_multiplicity
  _atom_site_fract_x
  _atom_site_fract_y
  _atom_site_fract_z
  _atom_site_occupancy
  V   V1        1.0  0.24999997975265362  0.24999990532201494  0.24999992539807545  1.0000
  V   V2        1.0  0.7499997258348605  0.7499999457518054  0.7499999852562788  1.0000
  Ge  Ge1       1.0  1.0734388020039218e-08  0.999999995162405  0.9999999990265432  1.0000
  O   O1        1.0  0.2560960436736849  0.2560960417475353  0.7439038880839941  1.0000
  O   O2        1.0  0.7439039440431039  0.7439040028300837  0.25609614814275217  1.0000
  O   O3        1.0  0.743904075418873  0.2560960590820475  0.2560960476492125  1.0000
  O   O4        1.0  0.25609613302080175  0.7439038911624699  0.743904065603369  1.0000
  O   O5        1.0  0.2560961311126131  0.7439040967482066  0.25609596088725645  1.0000
  O   O6        1.0  0.7439039319266205  0.2560960639316916  0.7439040092512248  1.0000
