data_image0
_chemical_formula_structural       V2HfS6
_chemical_formula_sum              "V2 Hf1 S6"
_cell_length_a       6.255277594754013
_cell_length_b       6.255277399957097
_cell_length_c       6.255277420708527
_cell_angle_alpha    59.999999383542715
_cell_angle_beta     60.000000863125514
_cell_angle_gamma    59.999998256267546

_space_group_name_H-M_alt    "P 1"
_space_group_IT_number       1

loop_
  _space_group_symop_operation_xyz
  'x, y, z'

loop_
  _atom_site_type_symbol
  _atom_site_label
  _atom_site_symmetry_multiplicity
  _atom_site_fract_x
  _atom_site_fract_y
  _atom_site_fract_z
  _atom_site_occupancy
  V   V1        1.0  0.24999999242877616  0.24999998207312465  0.24999998444976515  1.0000
  V   V2        1.0  0.7500000048253572  0.7500000186631007  0.7499999321336194  1.0000
  Hf  Hf1       1.0  0.9999999847843971  2.3495262827803073e-08  3.902372319629348e-08  1.0000
  S   S1        1.0  0.27006686428302895  0.2700668895496678  0.729933069063798  1.0000
  S   S2        1.0  0.7299331017209385  0.7299330720277862  0.27006693068355914  1.0000
  S   S3        1.0  0.7299331399008693  0.270066842197759  0.27006690727995847  1.0000
  S   S4        1.0  0.27006689710704423  0.7299331389590794  0.7299331462920406  1.0000
  S   S5        1.0  0.27006682764541606  0.729933204155182  0.2700668137236682  1.0000
  S   S6        1.0  0.729933174158028  0.27006681616042844  0.7299331979049266  1.0000
