data_image0
_chemical_formula_structural       V2HfO6
_chemical_formula_sum              "V2 Hf1 O6"
_cell_length_a       5.236678141166515
_cell_length_b       5.23667822413566
_cell_length_c       5.236678326219328
_cell_angle_alpha    59.99999906592126
_cell_angle_beta     59.99999816997136
_cell_angle_gamma    59.99999864157934

_space_group_name_H-M_alt    "P 1"
_space_group_IT_number       1

loop_
  _space_group_symop_operation_xyz
  'x, y, z'

loop_
  _atom_site_type_symbol
  _atom_site_label
  _atom_site_symmetry_multiplicity
  _atom_site_fract_x
  _atom_site_fract_y
  _atom_site_fract_z
  _atom_site_occupancy
  V   V1        1.0  0.2499996099798312  0.25000039335003377  0.24999998448815391  1.0000
  V   V2        1.0  0.7500001471805933  0.7500001720350415  0.7499999592584642  1.0000
  Hf  Hf1       1.0  1.2205990076570189e-08  0.9999999766121798  0.9999999998620926  1.0000
  O   O1        1.0  0.2689354271461407  0.2689353309794591  0.7310645681683224  1.0000
  O   O2        1.0  0.731064693878153  0.7310645000280614  0.2689354080665413  1.0000
  O   O3        1.0  0.7310647819627449  0.2689353360702086  0.26893538955486884  1.0000
  O   O4        1.0  0.2689352462937968  0.7310645417129529  0.7310646669642746  1.0000
  O   O5        1.0  0.26893543492117783  0.7310644415061168  0.26893537798384204  1.0000
  O   O6        1.0  0.7310646222032923  0.26893530998281595  0.7310646642314055  1.0000
