data_image0
_chemical_formula_structural       V2HfSe6
_chemical_formula_sum              "V2 Hf1 Se6"
_cell_length_a       6.6416751636202855
_cell_length_b       6.641675293516185
_cell_length_c       6.641675197157673
_cell_angle_alpha    60.00000189063805
_cell_angle_beta     60.00000163363457
_cell_angle_gamma    60.000001727226234

_space_group_name_H-M_alt    "P 1"
_space_group_IT_number       1

loop_
  _space_group_symop_operation_xyz
  'x, y, z'

loop_
  _atom_site_type_symbol
  _atom_site_label
  _atom_site_symmetry_multiplicity
  _atom_site_fract_x
  _atom_site_fract_y
  _atom_site_fract_z
  _atom_site_occupancy
  V   V1        1.0  0.24999995401438085  0.25000003965424017  0.24999998535686418  1.0000
  V   V2        1.0  0.7500000947853642  0.749999978816441  0.7499998420186323  1.0000
  Hf  Hf1       1.0  0.9999999639811887  3.503656972961728e-08  0.999999995974188  1.0000
  Se  Se1       1.0  0.27008048100886084  0.2700804982461451  0.729919526389176  1.0000
  Se  Se2       1.0  0.7299195147570622  0.7299194446193086  0.27008060169198944  1.0000
  Se  Se3       1.0  0.7299195046315659  0.27008050079211776  0.27008049855778243  1.0000
  Se  Se4       1.0  0.27008044779060425  0.7299195877517044  0.7299194880174219  1.0000
  Se  Se5       1.0  0.27008049849320637  0.7299194784170453  0.270080535549605  1.0000
  Se  Se6       1.0  0.7299195370669548  0.27008044416407784  0.729919525562126  1.0000
