data_image0
_chemical_formula_structural       V2HfTe6
_chemical_formula_sum              "V2 Hf1 Te6"
_cell_length_a       7.32276462713774
_cell_length_b       7.322764676828786
_cell_length_c       7.322764599921804
_cell_angle_alpha    60.00000086590765
_cell_angle_beta     60.00000008577461
_cell_angle_gamma    59.999999700614765

_space_group_name_H-M_alt    "P 1"
_space_group_IT_number       1

loop_
  _space_group_symop_operation_xyz
  'x, y, z'

loop_
  _atom_site_type_symbol
  _atom_site_label
  _atom_site_symmetry_multiplicity
  _atom_site_fract_x
  _atom_site_fract_y
  _atom_site_fract_z
  _atom_site_occupancy
  V   V1        1.0  0.24999998844929702  0.2500000672548702  0.24999996486902137  1.0000
  V   V2        1.0  0.7500000004571544  0.7499999592496411  0.7500000256220053  1.0000
  Hf  Hf1       1.0  0.9999999795007654  3.1464666894097657e-16  2.9368079639414025e-08  1.0000
  Te  Te1       1.0  0.2665700769531707  0.26657009102703616  0.7334299292806822  1.0000
  Te  Te2       1.0  0.733429946373746  0.7334299220973388  0.26657007936787347  1.0000
  Te  Te3       1.0  0.7334299425009467  0.26657006667900063  0.2665700373037977  1.0000
  Te  Te4       1.0  0.26657007047390224  0.7334298828897271  0.7334299550400412  1.0000
  Te  Te5       1.0  0.2665700683195219  0.7334299135304206  0.266570052929329  1.0000
  Te  Te6       1.0  0.7334299255088277  0.2665701029389883  0.7334299169030238  1.0000
