data_image0
_chemical_formula_structural       V2IrO6
_chemical_formula_sum              "V2 Ir1 O6"
_cell_length_a       5.145050306979537
_cell_length_b       5.145050458084622
_cell_length_c       5.145050171740849
_cell_angle_alpha    59.99999948185541
_cell_angle_beta     59.99999971895855
_cell_angle_gamma    59.99999971363874

_space_group_name_H-M_alt    "P 1"
_space_group_IT_number       1

loop_
  _space_group_symop_operation_xyz
  'x, y, z'

loop_
  _atom_site_type_symbol
  _atom_site_label
  _atom_site_symmetry_multiplicity
  _atom_site_fract_x
  _atom_site_fract_y
  _atom_site_fract_z
  _atom_site_occupancy
  V   V1        1.0  0.2500000704917657  0.2500000129177941  0.25000015654631674  1.0000
  V   V2        1.0  0.7499999457229977  0.7499998126122365  0.7500005523219655  1.0000
  Ir  Ir1       1.0  0.9999999941733776  3.094563242524007e-08  0.9999999330192565  1.0000
  O   O1        1.0  0.2564110866061695  0.25641117472663266  0.7435887786185427  1.0000
  O   O2        1.0  0.7435888395605532  0.7435889007489019  0.25641092513995783  1.0000
  O   O3        1.0  0.7435889246889336  0.2564111871291454  0.2564109941887214  1.0000
  O   O4        1.0  0.25641102931557586  0.7435889192920168  0.7435888317800914  1.0000
  O   O5        1.0  0.2564112830066572  0.7435888349857726  0.25641093611758053  1.0000
  O   O6        1.0  0.7435888425872422  0.2564111000442007  0.7435888878085176  1.0000
