data_image0
_chemical_formula_structural       V2IrS6
_chemical_formula_sum              "V2 Ir1 S6"
_cell_length_a       6.069368821077364
_cell_length_b       6.06936885207784
_cell_length_c       6.069368713246129
_cell_angle_alpha    60.00000156974018
_cell_angle_beta     60.00000083255952
_cell_angle_gamma    60.00000049592254

_space_group_name_H-M_alt    "P 1"
_space_group_IT_number       1

loop_
  _space_group_symop_operation_xyz
  'x, y, z'

loop_
  _atom_site_type_symbol
  _atom_site_label
  _atom_site_symmetry_multiplicity
  _atom_site_fract_x
  _atom_site_fract_y
  _atom_site_fract_z
  _atom_site_occupancy
  V   V1        1.0  0.2499998822957912  0.2500001725686404  0.2499999026277967  1.0000
  V   V2        1.0  0.750000028569058  0.7500000233176299  0.7499999075794408  1.0000
  Ir  Ir1       1.0  0.9999999521867585  4.641196236601844e-08  2.0472053476523875e-08  1.0000
  S   S1        1.0  0.2659016269058862  0.2659016452615134  0.7340984577740024  1.0000
  S   S2        1.0  0.7340983689618559  0.7340982499559615  0.2659016826945894  1.0000
  S   S3        1.0  0.7340983636620688  0.2659015275988649  0.2659017729479811  1.0000
  S   S4        1.0  0.26590179395821056  0.7340982990096215  0.7340982814060086  1.0000
  S   S5        1.0  0.2659016637475246  0.7340982466974997  0.265901710995135  1.0000
  S   S6        1.0  0.7340983164945557  0.26590176959465767  0.7340982614157  1.0000
