data_image0
_chemical_formula_structural       V2IrSe6
_chemical_formula_sum              "V2 Ir1 Se6"
_cell_length_a       6.3922042801209304
_cell_length_b       6.392205164910859
_cell_length_c       6.392204204552633
_cell_angle_alpha    59.999999072717024
_cell_angle_beta     60.00000192310956
_cell_angle_gamma    60.00000285964139

_space_group_name_H-M_alt    "P 1"
_space_group_IT_number       1

loop_
  _space_group_symop_operation_xyz
  'x, y, z'

loop_
  _atom_site_type_symbol
  _atom_site_label
  _atom_site_symmetry_multiplicity
  _atom_site_fract_x
  _atom_site_fract_y
  _atom_site_fract_z
  _atom_site_occupancy
  V   V1        1.0  0.24999993433929998  0.2499996908225935  0.250000156913963  1.0000
  V   V2        1.0  0.749999829928925  0.7500003140341139  0.749999797393015  1.0000
  Ir  Ir1       1.0  2.4741992354746605e-08  2.8739960077508436e-08  0.9999999935962954  1.0000
  Se  Se1       1.0  0.2709631598804129  0.2709625422479669  0.7290371345915292  1.0000
  Se  Se2       1.0  0.7290369810749795  0.7290372863369637  0.27096295260419895  1.0000
  Se  Se3       1.0  0.7290371693285482  0.2709629036373286  0.2709627142461184  1.0000
  Se  Se4       1.0  0.2709630952836222  0.7290369766795322  0.7290373040281217  1.0000
  Se  Se5       1.0  0.27096285536575004  0.7290371766461664  0.2709627340345038  1.0000
  Se  Se6       1.0  0.7290369580921144  0.2709630274742604  0.7290372790812405  1.0000
