data_image0
_chemical_formula_structural       V2MgI6
_chemical_formula_sum              "V2 Mg1 I6"
_cell_length_a       7.637218659774465
_cell_length_b       7.637218742520104
_cell_length_c       7.637218741467207
_cell_angle_alpha    59.99999971917078
_cell_angle_beta     59.999999528305366
_cell_angle_gamma    59.999999498410325

_space_group_name_H-M_alt    "P 1"
_space_group_IT_number       1

loop_
  _space_group_symop_operation_xyz
  'x, y, z'

loop_
  _atom_site_type_symbol
  _atom_site_label
  _atom_site_symmetry_multiplicity
  _atom_site_fract_x
  _atom_site_fract_y
  _atom_site_fract_z
  _atom_site_occupancy
  V   V1        1.0  0.2499999566980433  0.25000003207631416  0.25000000606426737  1.0000
  V   V2        1.0  0.7499999966253617  0.7499999887841908  0.749999999483922  1.0000
  Mg  Mg1       1.0  0.9999999926237361  0.9999999903780821  0.9999999836209243  1.0000
  I   I1        1.0  0.25895389439289657  0.2589539068877036  0.7410460944502939  1.0000
  I   I2        1.0  0.7410460850003219  0.7410460947289654  0.2589538998286436  1.0000
  I   I3        1.0  0.7410461202979262  0.25895393069507233  0.25895387341725185  1.0000
  I   I4        1.0  0.2589538806895331  0.7410461013910034  0.7410461367299318  1.0000
  I   I5        1.0  0.2589539406047461  0.7410460594373679  0.2589539100666794  1.0000
  I   I6        1.0  0.7410461297956656  0.2589539004843225  0.7410460949093347  1.0000
