data_image0
_chemical_formula_structural       V2MgCl6
_chemical_formula_sum              "V2 Mg1 Cl6"
_cell_length_a       6.502673066553818
_cell_length_b       6.50267313278557
_cell_length_c       6.502673106211694
_cell_angle_alpha    59.999999590835785
_cell_angle_beta     59.99999958165965
_cell_angle_gamma    60.00000007590617

_space_group_name_H-M_alt    "P 1"
_space_group_IT_number       1

loop_
  _space_group_symop_operation_xyz
  'x, y, z'

loop_
  _atom_site_type_symbol
  _atom_site_label
  _atom_site_symmetry_multiplicity
  _atom_site_fract_x
  _atom_site_fract_y
  _atom_site_fract_z
  _atom_site_occupancy
  V   V1        1.0  0.25000002846112784  0.2499998995046735  0.24999999873169365  1.0000
  V   V2        1.0  0.7499999193907084  0.7500000846209228  0.7500001429554274  1.0000
  Mg  Mg1       1.0  6.456631371910294e-09  3.39020694698303e-08  1.2115060753472994e-08  1.0000
  Cl  Cl1       1.0  0.25619560458584917  0.25619547181428354  0.7438044855144363  1.0000
  Cl  Cl2       1.0  0.7438044178652169  0.7438044802926924  0.25619547802381065  1.0000
  Cl  Cl3       1.0  0.7438044297619414  0.2561955381611055  0.2561955428491017  1.0000
  Cl  Cl4       1.0  0.25619556580074876  0.7438044892838029  0.7438043887752213  1.0000
  Cl  Cl5       1.0  0.2561955645609289  0.7438044429240238  0.2561955049442311  1.0000
  Cl  Cl6       1.0  0.7438044653869684  0.256195550618815  0.743804441816814  1.0000
