data_image0
_chemical_formula_structural       V2MgF6
_chemical_formula_sum              "V2 Mg1 F6"
_cell_length_a       5.102022889900854
_cell_length_b       5.10202252734032
_cell_length_c       5.102022898932951
_cell_angle_alpha    59.99999993753951
_cell_angle_beta     60.0000013764048
_cell_angle_gamma    60.00000017464656

_space_group_name_H-M_alt    "P 1"
_space_group_IT_number       1

loop_
  _space_group_symop_operation_xyz
  'x, y, z'

loop_
  _atom_site_type_symbol
  _atom_site_label
  _atom_site_symmetry_multiplicity
  _atom_site_fract_x
  _atom_site_fract_y
  _atom_site_fract_z
  _atom_site_occupancy
  V   V1        1.0  0.2499999919120023  0.2499999970309245  0.2500000225783447  1.0000
  V   V2        1.0  0.7499999680324421  0.7499999598861609  0.7500000362299433  1.0000
  Mg  Mg1       1.0  1.545423992939165e-08  0.999999980795932  1.9514975801611995e-08  1.0000
  F   F1        1.0  0.2558203602796923  0.2558204032016311  0.7441795689398351  1.0000
  F   F2        1.0  0.7441796234618824  0.7441796113276591  0.25582038644356636  1.0000
  F   F3        1.0  0.7441795212435725  0.25582045001588843  0.2558203214745773  1.0000
  F   F4        1.0  0.255820491256993  0.7441795597123859  0.7441796689700022  1.0000
  F   F5        1.0  0.2558203456528707  0.7441796765950531  0.2558204443862903  1.0000
  F   F6        1.0  0.7441796680361713  0.255820349936782  0.7441795743024013  1.0000
