data_image0
_chemical_formula_structural       V2MgBr6
_chemical_formula_sum              "V2 Mg1 Br6"
_cell_length_a       6.964731825442811
_cell_length_b       6.964731839626142
_cell_length_c       6.964731745298543
_cell_angle_alpha    60.00000014571459
_cell_angle_beta     60.00000006091378
_cell_angle_gamma    60.00000007155839

_space_group_name_H-M_alt    "P 1"
_space_group_IT_number       1

loop_
  _space_group_symop_operation_xyz
  'x, y, z'

loop_
  _atom_site_type_symbol
  _atom_site_label
  _atom_site_symmetry_multiplicity
  _atom_site_fract_x
  _atom_site_fract_y
  _atom_site_fract_z
  _atom_site_occupancy
  V   V1        1.0  0.249999983110727  0.2500000065190604  0.2500000739839164  1.0000
  V   V2        1.0  0.7499999989693714  0.7500000248326677  0.7500000624013066  1.0000
  Mg  Mg1       1.0  1.0918742154102533e-08  7.033981414069112e-09  1.8303942275373688e-08  1.0000
  Br  Br1       1.0  0.25724344150087486  0.2572433937903  0.7427565502324033  1.0000
  Br  Br2       1.0  0.7427565562045424  0.7427566006330257  0.2572434044064274  1.0000
  Br  Br3       1.0  0.7427565527711534  0.25724345738634585  0.25724340159896125  1.0000
  Br  Br4       1.0  0.257243421321029  0.7427565581389243  0.7427565413732652  1.0000
  Br  Br5       1.0  0.2572434499409074  0.7427565416312177  0.25724340808401364  1.0000
  Br  Br6       1.0  0.7427565787967514  0.2572434193806958  0.742756546308597  1.0000
