data_image0
_chemical_formula_structural       V2MnO6
_chemical_formula_sum              "V2 Mn1 O6"
_cell_length_a       4.990543538405841
_cell_length_b       4.990543464203705
_cell_length_c       4.990543510702349
_cell_angle_alpha    60.0000000019468
_cell_angle_beta     59.99999995025887
_cell_angle_gamma    60.00000122887728

_space_group_name_H-M_alt    "P 1"
_space_group_IT_number       1

loop_
  _space_group_symop_operation_xyz
  'x, y, z'

loop_
  _atom_site_type_symbol
  _atom_site_label
  _atom_site_symmetry_multiplicity
  _atom_site_fract_x
  _atom_site_fract_y
  _atom_site_fract_z
  _atom_site_occupancy
  V   V1        1.0  0.2499998428343819  0.24999994682003834  0.25000012227971874  1.0000
  V   V2        1.0  0.7499999229921646  0.7499997398407402  0.7500001357451631  1.0000
  Mn  Mn1       1.0  0.9999999929183147  7.362393717375774e-09  1.98975434988937e-08  1.0000
  O   O1        1.0  0.2525891193702639  0.2525892464987451  0.7474108190751358  1.0000
  O   O2        1.0  0.7474109330316442  0.7474107812862821  0.252589169183316  1.0000
  O   O3        1.0  0.7474108592571628  0.25258923163729047  0.2525891181021345  1.0000
  O   O4        1.0  0.2525892314723975  0.7474108894047246  0.7474107522654635  1.0000
  O   O5        1.0  0.2525892510536034  0.7474108896826629  0.2525890992214197  1.0000
  O   O6        1.0  0.7474108430644053  0.2525892559006647  0.7474107651964569  1.0000
