data_image0
_chemical_formula_structural       V2MnS6
_chemical_formula_sum              "V2 Mn1 S6"
_cell_length_a       6.018112676682581
_cell_length_b       6.018113105551229
_cell_length_c       6.018113413053657
_cell_angle_alpha    59.99999773724811
_cell_angle_beta     59.999994654200236
_cell_angle_gamma    59.99999955990742

_space_group_name_H-M_alt    "P 1"
_space_group_IT_number       1

loop_
  _space_group_symop_operation_xyz
  'x, y, z'

loop_
  _atom_site_type_symbol
  _atom_site_label
  _atom_site_symmetry_multiplicity
  _atom_site_fract_x
  _atom_site_fract_y
  _atom_site_fract_z
  _atom_site_occupancy
  V   V1        1.0  0.25000014837171125  0.25000011774474334  0.24999989389414956  1.0000
  V   V2        1.0  0.7500000192650217  0.7499999787762297  0.7500005687000505  1.0000
  Mn  Mn1       1.0  1.4646372435416503e-07  0.9999998656835456  0.9999996267016463  1.0000
  S   S1        1.0  0.25772592588458026  0.2577257512342972  0.7422740791919129  1.0000
  S   S2        1.0  0.7422739226080632  0.7422742781284478  0.2577259118933267  1.0000
  S   S3        1.0  0.7422739636799975  0.2577262422584523  0.25772562542451033  1.0000
  S   S4        1.0  0.257725467827529  0.7422740882987668  0.7422745215934216  1.0000
  S   S5        1.0  0.2577259854107017  0.7422740972069359  0.2577257827947806  1.0000
  S   S6        1.0  0.7422743839101137  0.25772561875074834  0.7422740281429856  1.0000
