data_image0
_chemical_formula_structural       V2MnSe6
_chemical_formula_sum              "V2 Mn1 Se6"
_cell_length_a       6.487944793338609
_cell_length_b       6.487944681079627
_cell_length_c       6.487944596533067
_cell_angle_alpha    59.99999858460516
_cell_angle_beta     60.000001078393524
_cell_angle_gamma    59.9999993890396

_space_group_name_H-M_alt    "P 1"
_space_group_IT_number       1

loop_
  _space_group_symop_operation_xyz
  'x, y, z'

loop_
  _atom_site_type_symbol
  _atom_site_label
  _atom_site_symmetry_multiplicity
  _atom_site_fract_x
  _atom_site_fract_y
  _atom_site_fract_z
  _atom_site_occupancy
  V   V1        1.0  0.25000019297066617  0.2500000074407243  0.24999931101276182  1.0000
  V   V2        1.0  0.7499998659827066  0.7499999826799204  0.7500005041640088  1.0000
  Mn  Mn1       1.0  9.896340197481788e-08  1.3025295799995614e-07  0.9999998314456116  1.0000
  Se  Se1       1.0  0.25428920153421664  0.2542886754892962  0.7457114501134666  1.0000
  Se  Se2       1.0  0.7457111091521785  0.7457115845758749  0.2542884618108101  1.0000
  Se  Se3       1.0  0.7457112385200935  0.2542888781573624  0.25428888277416  1.0000
  Se  Se4       1.0  0.2542886081418855  0.7457108892118459  0.7457112886428457  1.0000
  Se  Se5       1.0  0.25428876229647235  0.7457110449922324  0.2542890642415755  1.0000
  Se  Se6       1.0  0.7457109947295826  0.2542887563560087  0.7457110933882303  1.0000
