data_image0
_chemical_formula_structural       V2MnTe6
_chemical_formula_sum              "V2 Mn1 Te6"
_cell_length_a       6.901729563132674
_cell_length_b       6.901729511004869
_cell_length_c       6.901729474230204
_cell_angle_alpha    60.00000082004885
_cell_angle_beta     60.00000012249523
_cell_angle_gamma    60.000000077239065

_space_group_name_H-M_alt    "P 1"
_space_group_IT_number       1

loop_
  _space_group_symop_operation_xyz
  'x, y, z'

loop_
  _atom_site_type_symbol
  _atom_site_label
  _atom_site_symmetry_multiplicity
  _atom_site_fract_x
  _atom_site_fract_y
  _atom_site_fract_z
  _atom_site_occupancy
  V   V1        1.0  0.25000003036672663  0.2499998709478551  0.25000004460778014  1.0000
  V   V2        1.0  0.7500000271786471  0.7500000405095741  0.7499998664652852  1.0000
  Mn  Mn1       1.0  2.4098426876934873e-08  2.3069120535605404e-08  0.9999999474379825  1.0000
  Te  Te1       1.0  0.2550916787425429  0.25509164537154855  0.7449083597195321  1.0000
  Te  Te2       1.0  0.74490826467807  0.7449083725587481  0.2550917131109101  1.0000
  Te  Te3       1.0  0.7449083392595616  0.25509164026109143  0.2550916906985973  1.0000
  Te  Te4       1.0  0.25509162482928344  0.7449083758946571  0.7449083567469685  1.0000
  Te  Te5       1.0  0.2550916357849703  0.7449083575615674  0.2550916930883802  1.0000
  Te  Te6       1.0  0.7449083719889896  0.25509167811420635  0.7449083184078791  1.0000
