data_image0
_chemical_formula_structural       V2MoO6
_chemical_formula_sum              "V2 Mo1 O6"
_cell_length_a       5.222987253981203
_cell_length_b       5.2229871817402715
_cell_length_c       5.222987344524044
_cell_angle_alpha    59.99999946803738
_cell_angle_beta     59.99999978339613
_cell_angle_gamma    59.99999935623821

_space_group_name_H-M_alt    "P 1"
_space_group_IT_number       1

loop_
  _space_group_symop_operation_xyz
  'x, y, z'

loop_
  _atom_site_type_symbol
  _atom_site_label
  _atom_site_symmetry_multiplicity
  _atom_site_fract_x
  _atom_site_fract_y
  _atom_site_fract_z
  _atom_site_occupancy
  V   V1        1.0  0.25000013877207644  0.24999984341355247  0.24999999860348507  1.0000
  V   V2        1.0  0.750000014543363  0.7500000789502225  0.7499999721220473  1.0000
  Mo  Mo1       1.0  0.9999999812637081  1.641438875426075e-08  1.26486301598793e-08  1.0000
  O   O1        1.0  0.25717428321276947  0.2571745795408893  0.742825557932787  1.0000
  O   O2        1.0  0.7428256482826198  0.7428254975871219  0.2571744061137773  1.0000
  O   O3        1.0  0.742825526734809  0.25717436214104555  0.2571744702531834  1.0000
  O   O4        1.0  0.2571745575973384  0.7428256610539742  0.7428254730606942  1.0000
  O   O5        1.0  0.257174385780112  0.7428256871004263  0.25717443429646086  1.0000
  O   O6        1.0  0.742825460321546  0.2571743079556418  0.7428256690067201  1.0000
