data_image0
_chemical_formula_structural       V2MoS6
_chemical_formula_sum              "V2 Mo1 S6"
_cell_length_a       6.285286368507066
_cell_length_b       6.285286197145999
_cell_length_c       6.285285989003557
_cell_angle_alpha    60.00000011950799
_cell_angle_beta     60.00000348215814
_cell_angle_gamma    59.99999731677669

_space_group_name_H-M_alt    "P 1"
_space_group_IT_number       1

loop_
  _space_group_symop_operation_xyz
  'x, y, z'

loop_
  _atom_site_type_symbol
  _atom_site_label
  _atom_site_symmetry_multiplicity
  _atom_site_fract_x
  _atom_site_fract_y
  _atom_site_fract_z
  _atom_site_occupancy
  V   V1        1.0  0.24999989047180926  0.25000022897771934  0.2500000789389392  1.0000
  V   V2        1.0  0.7500001861038588  0.750000190042576  0.7499996201492175  1.0000
  Mo  Mo1       1.0  1.0282295226499687e-07  9.937811431061023e-08  0.9999997461617871  1.0000
  S   S1        1.0  0.2607748244547879  0.26077481111882816  0.7392250385919972  1.0000
  S   S2        1.0  0.7392250985329961  0.739225087627813  0.26077486219044366  1.0000
  S   S3        1.0  0.7392252405177524  0.2607748014769532  0.2607749824653849  1.0000
  S   S4        1.0  0.26077483830917786  0.7392252745914095  0.7392252449520472  1.0000
  S   S5        1.0  0.2607745487323476  0.7392248597251554  0.26077526328882217  1.0000
  S   S6        1.0  0.7392251442458778  0.2607747369899623  0.7392251851242568  1.0000
