data_image0
_chemical_formula_structural       V2MoSe6
_chemical_formula_sum              "V2 Mo1 Se6"
_cell_length_a       6.808056791352766
_cell_length_b       6.8080564511494055
_cell_length_c       6.808056459537129
_cell_angle_alpha    60.00000107855453
_cell_angle_beta     60.000002904914666
_cell_angle_gamma    59.99999788432106

_space_group_name_H-M_alt    "P 1"
_space_group_IT_number       1

loop_
  _space_group_symop_operation_xyz
  'x, y, z'

loop_
  _atom_site_type_symbol
  _atom_site_label
  _atom_site_symmetry_multiplicity
  _atom_site_fract_x
  _atom_site_fract_y
  _atom_site_fract_z
  _atom_site_occupancy
  V   V1        1.0  0.2500001033321154  0.2500000288544388  0.2500000266286976  1.0000
  V   V2        1.0  0.7500003276773263  0.7500000487850652  0.7499993555107365  1.0000
  Mo  Mo1       1.0  0.9999998829352086  6.116477881027506e-08  0.9999997855900884  1.0000
  Se  Se1       1.0  0.25415182389746505  0.25415200569122265  0.745848147191499  1.0000
  Se  Se2       1.0  0.745848205605656  0.7458479586135611  0.25415207256340405  1.0000
  Se  Se3       1.0  0.7458479306515111  0.25415181278474197  0.2541520620617686  1.0000
  Se  Se4       1.0  0.25415186650637966  0.7458481209376585  0.7458482157145394  1.0000
  Se  Se5       1.0  0.2541517656479083  0.745848037945971  0.25415211506315444  1.0000
  Se  Se6       1.0  0.7458481125102576  0.2541519173639968  0.7458482127697444  1.0000
