data_image0
_chemical_formula_structural       V2NbS6
_chemical_formula_sum              "V2 Nb1 S6"
_cell_length_a       6.278087012624254
_cell_length_b       6.278086935443918
_cell_length_c       6.278087145682504
_cell_angle_alpha    60.000000249230624
_cell_angle_beta     59.999999880874014
_cell_angle_gamma    60.000000813332264

_space_group_name_H-M_alt    "P 1"
_space_group_IT_number       1

loop_
  _space_group_symop_operation_xyz
  'x, y, z'

loop_
  _atom_site_type_symbol
  _atom_site_label
  _atom_site_symmetry_multiplicity
  _atom_site_fract_x
  _atom_site_fract_y
  _atom_site_fract_z
  _atom_site_occupancy
  V   V1        1.0  0.25000001656733545  0.2500000646483845  0.2499999737528937  1.0000
  V   V2        1.0  0.7499999697438935  0.7500000144692561  0.7499999856691678  1.0000
  Nb  Nb1       1.0  9.214762425666087e-08  5.462310000841843e-08  0.9999999536929505  1.0000
  S   S1        1.0  0.2649776236556787  0.26497756314001714  0.7350223124165693  1.0000
  S   S2        1.0  0.7350224148241181  0.7350224808627734  0.26497753335107055  1.0000
  S   S3        1.0  0.7350223501034664  0.2649775707530622  0.26497763161727994  1.0000
  S   S4        1.0  0.26497754340986346  0.7350224556923046  0.7350224658463833  1.0000
  S   S5        1.0  0.26497761898611233  0.7350222758717629  0.2649776712624072  1.0000
  S   S6        1.0  0.7350223898840265  0.26497752037626016  0.7350224613217353  1.0000
