data_image0
_chemical_formula_structural       V2NbO6
_chemical_formula_sum              "V2 Nb1 O6"
_cell_length_a       5.224413356700697
_cell_length_b       5.224413010145205
_cell_length_c       5.224413175722476
_cell_angle_alpha    60.00000000227461
_cell_angle_beta     60.000000984907544
_cell_angle_gamma    60.00000058411007

_space_group_name_H-M_alt    "P 1"
_space_group_IT_number       1

loop_
  _space_group_symop_operation_xyz
  'x, y, z'

loop_
  _atom_site_type_symbol
  _atom_site_label
  _atom_site_symmetry_multiplicity
  _atom_site_fract_x
  _atom_site_fract_y
  _atom_site_fract_z
  _atom_site_occupancy
  V   V1        1.0  0.2500009408128452  0.2499992660136169  0.2500000709452065  1.0000
  V   V2        1.0  0.7499998242626058  0.7500006791519369  0.7500000512476522  1.0000
  Nb  Nb1       1.0  0.9999999715355258  0.999999985934363  0.9999999944677875  1.0000
  O   O1        1.0  0.2648284538597733  0.2648282929614557  0.735171594735127  1.0000
  O   O2        1.0  0.7351713227844751  0.7351717928604349  0.264828321609369  1.0000
  O   O3        1.0  0.7351712852608939  0.26482823714930087  0.26482856150124023  1.0000
  O   O4        1.0  0.2648282876886283  0.7351717900657679  0.735171403688135  1.0000
  O   O5        1.0  0.2648284612933099  0.7351717091607982  0.2648282590131369  1.0000
  O   O6        1.0  0.7351714142546576  0.26482821256200645  0.7351717684067546  1.0000
