data_image0
_chemical_formula_structural       V2NbSe6
_chemical_formula_sum              "V2 Nb1 Se6"
_cell_length_a       6.726692549739616
_cell_length_b       6.7266925625921035
_cell_length_c       6.726692612957962
_cell_angle_alpha    59.999999038252405
_cell_angle_beta     60.00000034609348
_cell_angle_gamma    59.999999696060684

_space_group_name_H-M_alt    "P 1"
_space_group_IT_number       1

loop_
  _space_group_symop_operation_xyz
  'x, y, z'

loop_
  _atom_site_type_symbol
  _atom_site_label
  _atom_site_symmetry_multiplicity
  _atom_site_fract_x
  _atom_site_fract_y
  _atom_site_fract_z
  _atom_site_occupancy
  V   V1        1.0  0.25000015182676055  0.2500000268604207  0.24999993485783278  1.0000
  V   V2        1.0  0.7499998226667803  0.7499998985088874  0.7500002253959662  1.0000
  Nb  Nb1       1.0  0.9999999862851072  0.9999999690476967  0.9999999940879192  1.0000
  Se  Se1       1.0  0.26013899013738273  0.2601390057653806  0.7398609583848316  1.0000
  Se  Se2       1.0  0.7398609049226829  0.7398610343095252  0.2601389879997672  1.0000
  Se  Se3       1.0  0.7398609373258882  0.2601390834288149  0.26013896273663173  1.0000
  Se  Se4       1.0  0.26013910919316874  0.7398609657497094  0.7398609271524976  1.0000
  Se  Se5       1.0  0.2601390532772624  0.7398610673222656  0.26013898068761654  1.0000
  Se  Se6       1.0  0.7398610441505971  0.2601389527246776  0.7398610217019213  1.0000
