data_image0
_chemical_formula_structural       V2NbTe6
_chemical_formula_sum              "V2 Nb1 Te6"
_cell_length_a       7.264602924162323
_cell_length_b       7.264602848069108
_cell_length_c       7.264602920884876
_cell_angle_alpha    60.00000015469832
_cell_angle_beta     59.99999982265699
_cell_angle_gamma    59.99999997844834

_space_group_name_H-M_alt    "P 1"
_space_group_IT_number       1

loop_
  _space_group_symop_operation_xyz
  'x, y, z'

loop_
  _atom_site_type_symbol
  _atom_site_label
  _atom_site_symmetry_multiplicity
  _atom_site_fract_x
  _atom_site_fract_y
  _atom_site_fract_z
  _atom_site_occupancy
  V   V1        1.0  0.24999999374068937  0.24999998176961025  0.25000001411596356  1.0000
  V   V2        1.0  0.7499999612308051  0.7500000768096189  0.7499999962288928  1.0000
  Nb  Nb1       1.0  3.293025845773896e-08  0.9999999679677567  0.9999999775263886  1.0000
  Te  Te1       1.0  0.26220327500602597  0.2622031821594955  0.7377967649953374  1.0000
  Te  Te2       1.0  0.7377967692193106  0.737796780323004  0.26220321986367  1.0000
  Te  Te3       1.0  0.7377967575457645  0.2622032250696716  0.26220326598160715  1.0000
  Te  Te4       1.0  0.2622031721867456  0.7377968233941125  0.7377967868181432  1.0000
  Te  Te5       1.0  0.26220326624080303  0.7377967395033282  0.2622032169365241  1.0000
  Te  Te6       1.0  0.7377967694751202  0.26220322466507867  0.7377967548157836  1.0000
