data_image0
_chemical_formula_structural       V2NiBr6
_chemical_formula_sum              "V2 Ni1 Br6"
_cell_length_a       6.841111333439551
_cell_length_b       6.841111249523456
_cell_length_c       6.84111125271766
_cell_angle_alpha    60.00000010502061
_cell_angle_beta     59.999999410184095
_cell_angle_gamma    60.000000016424075

_space_group_name_H-M_alt    "P 1"
_space_group_IT_number       1

loop_
  _space_group_symop_operation_xyz
  'x, y, z'

loop_
  _atom_site_type_symbol
  _atom_site_label
  _atom_site_symmetry_multiplicity
  _atom_site_fract_x
  _atom_site_fract_y
  _atom_site_fract_z
  _atom_site_occupancy
  V   V1        1.0  0.25000003150870526  0.2500000125590203  0.24999992425110698  1.0000
  V   V2        1.0  0.7500000340021817  0.749999966066189  0.7500000522363446  1.0000
  Ni  Ni1       1.0  1.9368260912471198e-08  0.9999999874680973  0.9999999980435715  1.0000
  Br  Br1       1.0  0.24884950950966847  0.24884951301668895  0.7511504735670359  1.0000
  Br  Br2       1.0  0.7511504648378916  0.7511504960431408  0.24884950404975306  1.0000
  Br  Br3       1.0  0.75115051650601  0.2488494971406204  0.24884951399836025  1.0000
  Br  Br4       1.0  0.24884944979410956  0.7511505208705689  0.7511505347922595  1.0000
  Br  Br5       1.0  0.2488495248247193  0.7511504878896129  0.24884950548680837  1.0000
  Br  Br6       1.0  0.7511504478349561  0.24884952117021697  0.7511504963619359  1.0000
