data_image0
_chemical_formula_structural       V2NiCl6
_chemical_formula_sum              "V2 Ni1 Cl6"
_cell_length_a       6.432531427867427
_cell_length_b       6.432531388923379
_cell_length_c       6.432531477558704
_cell_angle_alpha    60.000000207641605
_cell_angle_beta     60.00000040794613
_cell_angle_gamma    60.000000109857105

_space_group_name_H-M_alt    "P 1"
_space_group_IT_number       1

loop_
  _space_group_symop_operation_xyz
  'x, y, z'

loop_
  _atom_site_type_symbol
  _atom_site_label
  _atom_site_symmetry_multiplicity
  _atom_site_fract_x
  _atom_site_fract_y
  _atom_site_fract_z
  _atom_site_occupancy
  V   V1        1.0  0.2499999090124264  0.2500000229776683  0.25000001338283495  1.0000
  V   V2        1.0  0.7499999721875891  0.749999952789869  0.7500000362742373  1.0000
  Ni  Ni1       1.0  0.9999999642598321  8.567936283181988e-08  0.9999999579298258  1.0000
  Cl  Cl1       1.0  0.25019896225472466  0.2501990015252416  0.7498010209986252  1.0000
  Cl  Cl2       1.0  0.7498010129062131  0.7498010047060693  0.2501989975380577  1.0000
  Cl  Cl3       1.0  0.7498010903176753  0.2501989719292122  0.25019897203568536  1.0000
  Cl  Cl4       1.0  0.2501989870734722  0.749801007646297  0.749801010268392  1.0000
  Cl  Cl5       1.0  0.2501990110964852  0.749800963253635  0.25019900043796783  1.0000
  Cl  Cl6       1.0  0.7498010937655422  0.25019898776208654  0.7498009824105634  1.0000
