data_image0
_chemical_formula_structural       V2NiI6
_chemical_formula_sum              "V2 Ni1 I6"
_cell_length_a       7.430415158553897
_cell_length_b       7.430415102101511
_cell_length_c       7.4304151757526995
_cell_angle_alpha    59.99999998206481
_cell_angle_beta     60.00000023001319
_cell_angle_gamma    60.00000031855232

_space_group_name_H-M_alt    "P 1"
_space_group_IT_number       1

loop_
  _space_group_symop_operation_xyz
  'x, y, z'

loop_
  _atom_site_type_symbol
  _atom_site_label
  _atom_site_symmetry_multiplicity
  _atom_site_fract_x
  _atom_site_fract_y
  _atom_site_fract_z
  _atom_site_occupancy
  V   V1        1.0  0.24999997250140635  0.24999998725100955  0.25000000946208667  1.0000
  V   V2        1.0  0.7500000150922594  0.7500000326293244  0.7500000087534436  1.0000
  Ni  Ni1       1.0  0.9999999940667257  0.9999999851654265  2.3842121989196636e-08  1.0000
  I   I1        1.0  0.252212599891008  0.2522126046242563  0.7477873927600565  1.0000
  I   I2        1.0  0.7477874122060649  0.7477874070146483  0.25221258098734994  1.0000
  I   I3        1.0  0.7477874033544207  0.2522125981298143  0.2522126246712083  1.0000
  I   I4        1.0  0.25221258434968563  0.7477873887848011  0.7477873722890059  1.0000
  I   I5        1.0  0.2522126173019121  0.7477873925624641  0.2522126137646757  1.0000
  I   I6        1.0  0.7477873971814095  0.2522126025935811  0.7477873737601352  1.0000
