data_image0
_chemical_formula_structural       V2NiF6
_chemical_formula_sum              "V2 Ni1 F6"
_cell_length_a       5.116013685590627
_cell_length_b       5.1160133080101655
_cell_length_c       5.116013648348463
_cell_angle_alpha    59.99999975667107
_cell_angle_beta     59.999997491299055
_cell_angle_gamma    59.99999899365346

_space_group_name_H-M_alt    "P 1"
_space_group_IT_number       1

loop_
  _space_group_symop_operation_xyz
  'x, y, z'

loop_
  _atom_site_type_symbol
  _atom_site_label
  _atom_site_symmetry_multiplicity
  _atom_site_fract_x
  _atom_site_fract_y
  _atom_site_fract_z
  _atom_site_occupancy
  V   V1        1.0  0.24999998617201927  0.2499999975381103  0.25000024234446155  1.0000
  V   V2        1.0  0.7500001264283865  0.7499998274321789  0.7499999477188414  1.0000
  Ni  Ni1       1.0  2.257033244981525e-09  0.9999999999999988  0.9999999617331936  1.0000
  F   F1        1.0  0.2557552287889465  0.2557553231034726  0.744244605566511  1.0000
  F   F2        1.0  0.7442448016428896  0.744244707745981  0.2557552372630583  1.0000
  F   F3        1.0  0.7442447200281144  0.255755276231668  0.25575527462703773  1.0000
  F   F4        1.0  0.2557552738569842  0.7442448168603278  0.7442446022661553  1.0000
  F   F5        1.0  0.255755228473916  0.7442447363099295  0.25575528233087813  1.0000
  F   F6        1.0  0.7442447048585638  0.25575537593362097  0.744244744269541  1.0000
