data_image0
_chemical_formula_structural       V2NiTe6
_chemical_formula_sum              "V2 Ni1 Te6"
_cell_length_a       6.905822728996488
_cell_length_b       6.905822626724471
_cell_length_c       6.905822607335262
_cell_angle_alpha    59.999999838774144
_cell_angle_beta     60.000000374954496
_cell_angle_gamma    60.00000052438162

_space_group_name_H-M_alt    "P 1"
_space_group_IT_number       1

loop_
  _space_group_symop_operation_xyz
  'x, y, z'

loop_
  _atom_site_type_symbol
  _atom_site_label
  _atom_site_symmetry_multiplicity
  _atom_site_fract_x
  _atom_site_fract_y
  _atom_site_fract_z
  _atom_site_occupancy
  V   V1        1.0  0.2499999625608703  0.2500000031089445  0.24999996652744372  1.0000
  V   V2        1.0  0.7499999916725139  0.7499999632159385  0.7499998764350406  1.0000
  Ni  Ni1       1.0  5.894250858013603e-09  1.2414471917029038e-08  1.8358653437043756e-08  1.0000
  Te  Te1       1.0  0.2574399057614406  0.25743990470231604  0.7425601232163455  1.0000
  Te  Te2       1.0  0.7425600751902268  0.7425601219214304  0.2574399600560343  1.0000
  Te  Te3       1.0  0.7425601263377949  0.2574398439217289  0.25743994722180796  1.0000
  Te  Te4       1.0  0.2574399526254989  0.7425600993477071  0.7425600954166854  1.0000
  Te  Te5       1.0  0.2574398417637539  0.7425601039111583  0.2574399463119378  1.0000
  Te  Te6       1.0  0.7425601374984434  0.25743995286202  0.7425600633602711  1.0000
