data_image0
_chemical_formula_structural       V2NiS6
_chemical_formula_sum              "V2 Ni1 S6"
_cell_length_a       5.904803517032908
_cell_length_b       5.90480356398353
_cell_length_c       5.904803596368471
_cell_angle_alpha    59.999998993263794
_cell_angle_beta     60.0000002768899
_cell_angle_gamma    59.999998574018164

_space_group_name_H-M_alt    "P 1"
_space_group_IT_number       1

loop_
  _space_group_symop_operation_xyz
  'x, y, z'

loop_
  _atom_site_type_symbol
  _atom_site_label
  _atom_site_symmetry_multiplicity
  _atom_site_fract_x
  _atom_site_fract_y
  _atom_site_fract_z
  _atom_site_occupancy
  V   V1        1.0  0.2500000411414079  0.24999991155213408  0.2500000169901542  1.0000
  V   V2        1.0  0.7499999852254638  0.750000213785075  0.7500000312302445  1.0000
  Ni  Ni1       1.0  7.327265646157329e-09  6.015035316786407e-08  0.9999999340839981  1.0000
  S   S1        1.0  0.25590469461023146  0.2559046229033777  0.7440953298023778  1.0000
  S   S2        1.0  0.7440953112762297  0.7440953116120246  0.25590466318316996  1.0000
  S   S3        1.0  0.7440953963124171  0.2559045782802609  0.2559046675634364  1.0000
  S   S4        1.0  0.2559045582558402  0.7440953811249424  0.7440953962165511  1.0000
  S   S5        1.0  0.2559046543100681  0.7440953932455602  0.25590452206986725  1.0000
  S   S6        1.0  0.744095338124946  0.25590452882494213  0.7440954432189799  1.0000
