data_image0
_chemical_formula_structural       V2NiO6
_chemical_formula_sum              "V2 Ni1 O6"
_cell_length_a       4.897511745129466
_cell_length_b       4.897511400466495
_cell_length_c       4.897511571664392
_cell_angle_alpha    60.00000175592886
_cell_angle_beta     60.00000374859641
_cell_angle_gamma    60.00000236651499

_space_group_name_H-M_alt    "P 1"
_space_group_IT_number       1

loop_
  _space_group_symop_operation_xyz
  'x, y, z'

loop_
  _atom_site_type_symbol
  _atom_site_label
  _atom_site_symmetry_multiplicity
  _atom_site_fract_x
  _atom_site_fract_y
  _atom_site_fract_z
  _atom_site_occupancy
  V   V1        1.0  0.2500002010333568  0.2500000342829034  0.25000025497208384  1.0000
  V   V2        1.0  0.749999302054323  0.7500005754902555  0.749998792191869  1.0000
  Ni  Ni1       1.0  9.835438460233632e-09  2.00059962670666e-08  3.2041908396194705e-08  1.0000
  O   O1        1.0  0.2532195496720778  0.2532187780125856  0.7467805584212353  1.0000
  O   O2        1.0  0.7467808127163338  0.7467809089841069  0.2532198456433512  1.0000
  O   O3        1.0  0.7467807761011854  0.25321891865454865  0.25321943644495104  1.0000
  O   O4        1.0  0.2532194277227688  0.7467808408638684  0.746780863627565  1.0000
  O   O5        1.0  0.253219127689261  0.7467807193424719  0.25321922883727666  1.0000
  O   O6        1.0  0.7467807408099733  0.25321923273363456  0.7467809588519585  1.0000
