data_image0
_chemical_formula_structural       V2OsS6
_chemical_formula_sum              "V2 Os1 S6"
_cell_length_a       5.990388749381418
_cell_length_b       5.990388994571817
_cell_length_c       5.990388884596972
_cell_angle_alpha    59.99999993536811
_cell_angle_beta     59.99999988722374
_cell_angle_gamma    60.00000032921698

_space_group_name_H-M_alt    "P 1"
_space_group_IT_number       1

loop_
  _space_group_symop_operation_xyz
  'x, y, z'

loop_
  _atom_site_type_symbol
  _atom_site_label
  _atom_site_symmetry_multiplicity
  _atom_site_fract_x
  _atom_site_fract_y
  _atom_site_fract_z
  _atom_site_occupancy
  V   V1        1.0  0.24999999942591258  0.2500000110638236  0.24999993587266722  1.0000
  V   V2        1.0  0.7499999914059406  0.7499999554998449  0.7500000418738944  1.0000
  Os  Os1       1.0  0.9999999956971728  0.9999999897774179  7.262704692343246e-09  1.0000
  S   S1        1.0  0.2700369555442124  0.2700369988604558  0.7299629952432207  1.0000
  S   S2        1.0  0.729963092724395  0.7299630556174184  0.2700369331986308  1.0000
  S   S3        1.0  0.7299629892480708  0.270036938280741  0.2700370324304655  1.0000
  S   S4        1.0  0.27003706601270344  0.7299629853480815  0.7299630146974131  1.0000
  S   S5        1.0  0.270036937335638  0.7299630676447142  0.2700370292299512  1.0000
  S   S6        1.0  0.7299629603271378  0.27003703385703753  0.729963026123208  1.0000
