data_image0
_chemical_formula_structural       V2OsO6
_chemical_formula_sum              "V2 Os1 O6"
_cell_length_a       5.229694650209027
_cell_length_b       5.229694711120502
_cell_length_c       5.229694634068292
_cell_angle_alpha    59.999998638932865
_cell_angle_beta     59.999998184109295
_cell_angle_gamma    59.99999962574583

_space_group_name_H-M_alt    "P 1"
_space_group_IT_number       1

loop_
  _space_group_symop_operation_xyz
  'x, y, z'

loop_
  _atom_site_type_symbol
  _atom_site_label
  _atom_site_symmetry_multiplicity
  _atom_site_fract_x
  _atom_site_fract_y
  _atom_site_fract_z
  _atom_site_occupancy
  V   V1        1.0  0.24999994524543337  0.2500002116702183  0.24999998574290885  1.0000
  V   V2        1.0  0.7499999009997533  0.7500003001182234  0.7500000385028084  1.0000
  Os  Os1       1.0  0.9999999956070413  0.9999999601876136  0.9999999704744197  1.0000
  O   O1        1.0  0.2498899821979312  0.24988988000779042  0.750110179559908  1.0000
  O   O2        1.0  0.7501101017161576  0.7501099783891267  0.2498897618991809  1.0000
  O   O3        1.0  0.750110007059754  0.24988974059849514  0.24989011961981583  1.0000
  O   O4        1.0  0.24989004451542726  0.7501101154565151  0.7501099692063932  1.0000
  O   O5        1.0  0.24988990579678144  0.7501098717291343  0.24988997300998717  1.0000
  O   O6        1.0  0.7501101307244241  0.2498899632487319  0.7501099656119191  1.0000
