data_image0
_chemical_formula_structural       V2PdS6
_chemical_formula_sum              "V2 Pd1 S6"
_cell_length_a       6.090664672514608
_cell_length_b       6.090664665427519
_cell_length_c       6.090664700735369
_cell_angle_alpha    59.999999896997274
_cell_angle_beta     60.00000001663188
_cell_angle_gamma    59.9999998377418

_space_group_name_H-M_alt    "P 1"
_space_group_IT_number       1

loop_
  _space_group_symop_operation_xyz
  'x, y, z'

loop_
  _atom_site_type_symbol
  _atom_site_label
  _atom_site_symmetry_multiplicity
  _atom_site_fract_x
  _atom_site_fract_y
  _atom_site_fract_z
  _atom_site_occupancy
  V   V1        1.0  0.24999999958548474  0.2500000005939199  0.2500000003386476  1.0000
  V   V2        1.0  0.7499999987564543  0.7500000017817597  0.7499999993740859  1.0000
  Pd  Pd1       1.0  0.9999999939674324  1.809770274949513e-08  0.9999999988930032  1.0000
  S   S1        1.0  0.26626653284902174  0.2662665417411217  0.7337334631047088  1.0000
  S   S2        1.0  0.7337334619312168  0.7337334485694228  0.26626654442144265  1.0000
  S   S3        1.0  0.733733456217944  0.26626653914550424  0.26626654072462674  1.0000
  S   S4        1.0  0.2662665414537099  0.7337334652410313  0.7337334550341078  1.0000
  S   S5        1.0  0.2662665543261014  0.7337334469730773  0.26626653911194953  1.0000
  S   S6        1.0  0.7337334557359646  0.2662665373048995  0.733733465431429  1.0000
