data_image0
_chemical_formula_structural       V2PdSe6
_chemical_formula_sum              "V2 Pd1 Se6"
_cell_length_a       6.31496931501332
_cell_length_b       6.314969867232875
_cell_length_c       6.314969119495816
_cell_angle_alpha    59.999998817816675
_cell_angle_beta     59.99999335071635
_cell_angle_gamma    59.99999832605796

_space_group_name_H-M_alt    "P 1"
_space_group_IT_number       1

loop_
  _space_group_symop_operation_xyz
  'x, y, z'

loop_
  _atom_site_type_symbol
  _atom_site_label
  _atom_site_symmetry_multiplicity
  _atom_site_fract_x
  _atom_site_fract_y
  _atom_site_fract_z
  _atom_site_occupancy
  V   V1        1.0  0.2500024501443547  0.24999643686981282  0.2500017944813546  1.0000
  V   V2        1.0  0.7499979560666832  0.7500034781536152  0.7499985613623745  1.0000
  Pd  Pd1       1.0  0.9999999593894044  0.999999732358525  0.9999997835779176  1.0000
  Se  Se1       1.0  0.2774745099111768  0.27747313702576126  0.7225258790421106  1.0000
  Se  Se2       1.0  0.722525567588882  0.722526979698526  0.2774737263676346  1.0000
  Se  Se3       1.0  0.7225255681249202  0.27747321384437723  0.2774747985115  1.0000
  Se  Se4       1.0  0.27747379783598686  0.7225273314941665  0.7225256213648001  1.0000
  Se  Se5       1.0  0.27747418016855796  0.7225267101212998  0.2774734996438407  1.0000
  Se  Se6       1.0  0.7225259821341639  0.27747295471554617  0.722526381153569  1.0000
