data_image0
_chemical_formula_structural       V2PdO6
_chemical_formula_sum              "V2 Pd1 O6"
_cell_length_a       5.12716214061645
_cell_length_b       5.127162391446966
_cell_length_c       5.127162440188524
_cell_angle_alpha    60.00001471101684
_cell_angle_beta     60.00001979079511
_cell_angle_gamma    60.00000626195686

_space_group_name_H-M_alt    "P 1"
_space_group_IT_number       1

loop_
  _space_group_symop_operation_xyz
  'x, y, z'

loop_
  _atom_site_type_symbol
  _atom_site_label
  _atom_site_symmetry_multiplicity
  _atom_site_fract_x
  _atom_site_fract_y
  _atom_site_fract_z
  _atom_site_occupancy
  V   V1        1.0  0.24999939471926264  0.24999972245352065  0.24999641304469544  1.0000
  V   V2        1.0  0.7500009228102509  0.7500031804410334  0.7499966860190511  1.0000
  Pd  Pd1       1.0  2.6638688616999075e-07  4.5386051621178454e-08  3.785222381858267e-07  1.0000
  O   O1        1.0  0.2631708119113113  0.263169011631784  0.7368313997840308  1.0000
  O   O2        1.0  0.7368301541549928  0.7368303511537397  0.26316972960433604  1.0000
  O   O3        1.0  0.7368306831211491  0.2631679953661038  0.26317195269402627  1.0000
  O   O4        1.0  0.26316893369353117  0.7368301587181548  0.7368308477001353  1.0000
  O   O5        1.0  0.2631684597685739  0.7368310126970137  0.2631715122237856  1.0000
  O   O6        1.0  0.7368304458778612  0.26316833575623966  0.7368310563220029  1.0000
