data_image0
_chemical_formula_structural       V2PO6
_chemical_formula_sum              "V2 P1 O6"
_cell_length_a       4.900589666792519
_cell_length_b       4.900589521800704
_cell_length_c       4.900589632213127
_cell_angle_alpha    59.99999870970896
_cell_angle_beta     59.99999862010913
_cell_angle_gamma    59.99999862818951

_space_group_name_H-M_alt    "P 1"
_space_group_IT_number       1

loop_
  _space_group_symop_operation_xyz
  'x, y, z'

loop_
  _atom_site_type_symbol
  _atom_site_label
  _atom_site_symmetry_multiplicity
  _atom_site_fract_x
  _atom_site_fract_y
  _atom_site_fract_z
  _atom_site_occupancy
  V   V1        1.0  0.24999965251571477  0.25000010474144385  0.250000311942301  1.0000
  V   V2        1.0  0.7500003198916088  0.7500000443130326  0.7499999202790256  1.0000
  P   P1        1.0  3.761029828924496e-09  0.999999967510677  1.0283005123194131e-08  1.0000
  O   O1        1.0  0.24175694377670925  0.2417568886746341  0.758243067135924  1.0000
  O   O2        1.0  0.7582430367489257  0.7582431229250142  0.2417568420452136  1.0000
  O   O3        1.0  0.7582431860701723  0.24175689864960404  0.2417569160110766  1.0000
  O   O4        1.0  0.24175678612486615  0.7582431379418312  0.7582430297320231  1.0000
  O   O5        1.0  0.24175685951032846  0.7582429005621375  0.2417569927196289  1.0000
  O   O6        1.0  0.7582432566813986  0.24175691610157268  0.7582429216095817  1.0000
