data_image0
_chemical_formula_structural       V2PS6
_chemical_formula_sum              "V2 P1 S6"
_cell_length_a       6.2686385339778585
_cell_length_b       6.268639030684235
_cell_length_c       6.268638668332395
_cell_angle_alpha    60.00000139962839
_cell_angle_beta     60.00000151936206
_cell_angle_gamma    60.0000009010755

_space_group_name_H-M_alt    "P 1"
_space_group_IT_number       1

loop_
  _space_group_symop_operation_xyz
  'x, y, z'

loop_
  _atom_site_type_symbol
  _atom_site_label
  _atom_site_symmetry_multiplicity
  _atom_site_fract_x
  _atom_site_fract_y
  _atom_site_fract_z
  _atom_site_occupancy
  V   V1        1.0  0.25000015560080935  0.24999998749056893  0.24999994379351864  1.0000
  V   V2        1.0  0.7500000306187207  0.7499996850370642  0.7500000286654559  1.0000
  P   P1        1.0  0.9999999472324544  0.9999999980462356  3.055113946986419e-08  1.0000
  S   S1        1.0  0.24334749677209683  0.24334759379161458  0.7566524677112306  1.0000
  S   S2        1.0  0.7566527187698017  0.7566521510253257  0.2433476645139411  1.0000
  S   S3        1.0  0.7566519963757208  0.2433477634004711  0.24334740339213376  1.0000
  S   S4        1.0  0.24334773585876318  0.7566524366437625  0.7566523552291156  1.0000
  S   S5        1.0  0.24334741131669888  0.7566526959839627  0.24334758111735968  1.0000
  S   S6        1.0  0.7566524329621531  0.24334768185289143  0.756652490420048  1.0000
