data_image0
_chemical_formula_structural       V2PtO6
_chemical_formula_sum              "V2 Pt1 O6"
_cell_length_a       5.136173088286412
_cell_length_b       5.136173077545436
_cell_length_c       5.136173120215483
_cell_angle_alpha    59.99999859991571
_cell_angle_beta     59.999997017759014
_cell_angle_gamma    59.999998646237025

_space_group_name_H-M_alt    "P 1"
_space_group_IT_number       1

loop_
  _space_group_symop_operation_xyz
  'x, y, z'

loop_
  _atom_site_type_symbol
  _atom_site_label
  _atom_site_symmetry_multiplicity
  _atom_site_fract_x
  _atom_site_fract_y
  _atom_site_fract_z
  _atom_site_occupancy
  V   V1        1.0  0.24999961278057578  0.249999997148958  0.25000017401335384  1.0000
  V   V2        1.0  0.7500001773256244  0.7499997649148551  0.7500003143225981  1.0000
  Pt  Pt1       1.0  0.9999999633473586  3.576821309815706e-08  1.6018013551681276e-08  1.0000
  O   O1        1.0  0.2627893932184693  0.26278964548931577  0.7372104339154294  1.0000
  O   O2        1.0  0.7372106735687842  0.7372103049537535  0.26278932930571786  1.0000
  O   O3        1.0  0.7372106380935516  0.2627895452187874  0.26278945950716515  1.0000
  O   O4        1.0  0.26278944156704365  0.7372105554507765  0.7372103740281024  1.0000
  O   O5        1.0  0.26278963790170107  0.7372105660631593  0.2627894317379592  1.0000
  O   O6        1.0  0.7372104755944624  0.26278956799006997  0.7372104966880321  1.0000
