data_image0
_chemical_formula_structural       V2PtSe6
_chemical_formula_sum              "V2 Pt1 Se6"
_cell_length_a       6.525403652644332
_cell_length_b       6.52540386591391
_cell_length_c       6.525403503170829
_cell_angle_alpha    60.00000002067137
_cell_angle_beta     60.0000023069527
_cell_angle_gamma    60.00000259832571

_space_group_name_H-M_alt    "P 1"
_space_group_IT_number       1

loop_
  _space_group_symop_operation_xyz
  'x, y, z'

loop_
  _atom_site_type_symbol
  _atom_site_label
  _atom_site_symmetry_multiplicity
  _atom_site_fract_x
  _atom_site_fract_y
  _atom_site_fract_z
  _atom_site_occupancy
  V   V1        1.0  0.2499999069520782  0.25000014976236334  0.24999977933254572  1.0000
  V   V2        1.0  0.7500000785840383  0.7499997848689198  0.7500002422542523  1.0000
  Pt  Pt1       1.0  0.9999999606590311  0.999999990615561  6.267451069640925e-08  1.0000
  Se  Se1       1.0  0.26200898454436694  0.26200907827761605  0.737991057986303  1.0000
  Se  Se2       1.0  0.7379909712467415  0.7379909933664512  0.26200887318726984  1.0000
  Se  Se3       1.0  0.7379908920996775  0.262009147978863  0.26200901901453827  1.0000
  Se  Se4       1.0  0.26200907266492146  0.7379908861274543  0.7379909739478058  1.0000
  Se  Se5       1.0  0.26200898859126404  0.7379908930940163  0.26200907690292646  1.0000
  Se  Se6       1.0  0.73799112288626  0.2620090565523675  0.7379909217122594  1.0000
