data_image0
_chemical_formula_structural       V2PtS6
_chemical_formula_sum              "V2 Pt1 S6"
_cell_length_a       6.145949355874443
_cell_length_b       6.145949154841885
_cell_length_c       6.145949201905298
_cell_angle_alpha    59.99999968116586
_cell_angle_beta     59.9999997346518
_cell_angle_gamma    59.99999918365013

_space_group_name_H-M_alt    "P 1"
_space_group_IT_number       1

loop_
  _space_group_symop_operation_xyz
  'x, y, z'

loop_
  _atom_site_type_symbol
  _atom_site_label
  _atom_site_symmetry_multiplicity
  _atom_site_fract_x
  _atom_site_fract_y
  _atom_site_fract_z
  _atom_site_occupancy
  V   V1        1.0  0.25000001044488224  0.24999995002200762  0.250000015793568  1.0000
  V   V2        1.0  0.7499999716655841  0.7500000234368107  0.7500000295799532  1.0000
  Pt  Pt1       1.0  0.9999999821986136  1.3949373727886182e-08  0.9999999986718305  1.0000
  S   S1        1.0  0.2619110954946022  0.26191104294387835  0.7380889558359681  1.0000
  S   S2        1.0  0.738088905631794  0.7380889185583339  0.26191108438080296  1.0000
  S   S3        1.0  0.7380889108630133  0.2619110835975337  0.261911069370091  1.0000
  S   S4        1.0  0.2619110592908469  0.738088925731103  0.7380889412675925  1.0000
  S   S5        1.0  0.26191106462292163  0.7380889480293922  0.26191105421311645  1.0000
  S   S6        1.0  0.738088985749468  0.2619110911907592  0.7380888460485533  1.0000
