data_image0
_chemical_formula_structural       V2ReSe6
_chemical_formula_sum              "V2 Re1 Se6"
_cell_length_a       6.7256877436504805
_cell_length_b       6.725688253192393
_cell_length_c       6.72568798276294
_cell_angle_alpha    60.000002104737376
_cell_angle_beta     59.99999982311668
_cell_angle_gamma    60.000001639169675

_space_group_name_H-M_alt    "P 1"
_space_group_IT_number       1

loop_
  _space_group_symop_operation_xyz
  'x, y, z'

loop_
  _atom_site_type_symbol
  _atom_site_label
  _atom_site_symmetry_multiplicity
  _atom_site_fract_x
  _atom_site_fract_y
  _atom_site_fract_z
  _atom_site_occupancy
  V   V1        1.0  0.25000003352946204  0.2500001357179469  0.24999977429914874  1.0000
  V   V2        1.0  0.7500001785491462  0.7499998899911043  0.7499992287758797  1.0000
  Re  Re1       1.0  0.9999999849827835  0.9999999471911294  3.3913043154563394e-08  1.0000
  Se  Se1       1.0  0.2585933105932877  0.2585932249216637  0.7414068274822149  1.0000
  Se  Se2       1.0  0.7414068023245369  0.7414067789354487  0.2585936129099958  1.0000
  Se  Se3       1.0  0.7414068165164882  0.258593016276346  0.25859341575221356  1.0000
  Se  Se4       1.0  0.2585931610855785  0.7414067909132477  0.7414069527377548  1.0000
  Se  Se5       1.0  0.25859312824235714  0.741406797601243  0.25859319147402277  1.0000
  Se  Se6       1.0  0.7414065798763504  0.2585934265963311  0.7414069441621041  1.0000
