data_image0
_chemical_formula_structural       V2ReTe6
_chemical_formula_sum              "V2 Re1 Te6"
_cell_length_a       7.180504564902357
_cell_length_b       7.180504593395523
_cell_length_c       7.180504569711007
_cell_angle_alpha    60.0000001582016
_cell_angle_beta     60.00000015415457
_cell_angle_gamma    60.000000356753326

_space_group_name_H-M_alt    "P 1"
_space_group_IT_number       1

loop_
  _space_group_symop_operation_xyz
  'x, y, z'

loop_
  _atom_site_type_symbol
  _atom_site_label
  _atom_site_symmetry_multiplicity
  _atom_site_fract_x
  _atom_site_fract_y
  _atom_site_fract_z
  _atom_site_occupancy
  V   V1        1.0  0.24999997647691877  0.24999998059145132  0.25000000728887056  1.0000
  V   V2        1.0  0.7499999917064503  0.7500000492304885  0.7499998840796254  1.0000
  Re  Re1       1.0  0.9999999842924051  8.528264601012613e-09  2.726488158938362e-08  1.0000
  Te  Te1       1.0  0.25856642215280384  0.25856636653439724  0.7414335949958203  1.0000
  Te  Te2       1.0  0.7414336361819938  0.7414336581705839  0.25856640008471893  1.0000
  Te  Te3       1.0  0.7414336133311978  0.2585663283508109  0.2585664146966874  1.0000
  Te  Te4       1.0  0.25856639302589796  0.7414336110715238  0.7414336392654073  1.0000
  Te  Te5       1.0  0.2585663539293142  0.7414336196527725  0.2585664247429335  1.0000
  Te  Te6       1.0  0.7414336294098355  0.25856637435045593  0.7414336092597079  1.0000
