data_image0
_chemical_formula_structural       V2ReS6
_chemical_formula_sum              "V2 Re1 S6"
_cell_length_a       6.164524024759148
_cell_length_b       6.164524264349723
_cell_length_c       6.164524104786105
_cell_angle_alpha    59.99999960917957
_cell_angle_beta     59.99999949123837
_cell_angle_gamma    60.00000082464051

_space_group_name_H-M_alt    "P 1"
_space_group_IT_number       1

loop_
  _space_group_symop_operation_xyz
  'x, y, z'

loop_
  _atom_site_type_symbol
  _atom_site_label
  _atom_site_symmetry_multiplicity
  _atom_site_fract_x
  _atom_site_fract_y
  _atom_site_fract_z
  _atom_site_occupancy
  V   V1        1.0  0.2499999607264162  0.25000006198767605  0.24999993221660102  1.0000
  V   V2        1.0  0.7500000375945773  0.7500000905984042  0.7499998363784166  1.0000
  Re  Re1       1.0  9.93381506999599e-09  0.9999999701985542  7.806559561654316e-08  1.0000
  S   S1        1.0  0.2657952232011403  0.2657952063801896  0.7342047704132676  1.0000
  S   S2        1.0  0.7342047807621038  0.7342047157413805  0.2657953263435186  1.0000
  S   S3        1.0  0.734204852486287  0.26579517829922117  0.26579522063838423  1.0000
  S   S4        1.0  0.2657952588334522  0.7342046802459347  0.7342047844743971  1.0000
  S   S5        1.0  0.2657951664159961  0.7342047900391114  0.2657952715138306  1.0000
  S   S6        1.0  0.7342047054405989  0.26579531486465335  0.7342047917942549  1.0000
