data_image0
_chemical_formula_structural       V2ReO6
_chemical_formula_sum              "V2 Re1 O6"
_cell_length_a       5.242593821818056
_cell_length_b       5.242593803444601
_cell_length_c       5.2425939371782375
_cell_angle_alpha    59.999998790673175
_cell_angle_beta     59.999999019138
_cell_angle_gamma    60.000000219739356

_space_group_name_H-M_alt    "P 1"
_space_group_IT_number       1

loop_
  _space_group_symop_operation_xyz
  'x, y, z'

loop_
  _atom_site_type_symbol
  _atom_site_label
  _atom_site_symmetry_multiplicity
  _atom_site_fract_x
  _atom_site_fract_y
  _atom_site_fract_z
  _atom_site_occupancy
  V   V1        1.0  0.2500003867165897  0.24999933806029848  0.24999987157625483  1.0000
  V   V2        1.0  0.7499993493240019  0.7499997265736901  0.7500009247714892  1.0000
  Re  Re1       1.0  2.6651807516235354e-08  6.541200442500465e-08  0.999999932986114  1.0000
  O   O1        1.0  0.2521739189831631  0.2521738768017182  0.7478262731378854  1.0000
  O   O2        1.0  0.7478260280804828  0.7478263652483464  0.2521735581320053  1.0000
  O   O3        1.0  0.74782611346364  0.25217404232581375  0.2521736563494189  1.0000
  O   O4        1.0  0.25217401376135323  0.7478263001784021  0.7478260498723435  1.0000
  O   O5        1.0  0.25217399204904717  0.7478263624979863  0.2521736252173932  1.0000
  O   O6        1.0  0.7478261674582054  0.2521739426279418  0.7478261274237957  1.0000
