data_image0
_chemical_formula_structural       V2RhO6
_chemical_formula_sum              "V2 Rh1 O6"
_cell_length_a       5.122324997003143
_cell_length_b       5.1223252017324485
_cell_length_c       5.1223253731011855
_cell_angle_alpha    60.000000872365156
_cell_angle_beta     60.000000239209285
_cell_angle_gamma    59.99999962097778

_space_group_name_H-M_alt    "P 1"
_space_group_IT_number       1

loop_
  _space_group_symop_operation_xyz
  'x, y, z'

loop_
  _atom_site_type_symbol
  _atom_site_label
  _atom_site_symmetry_multiplicity
  _atom_site_fract_x
  _atom_site_fract_y
  _atom_site_fract_z
  _atom_site_occupancy
  V   V1        1.0  0.24999938113889614  0.2499999773333208  0.25000047273077497  1.0000
  V   V2        1.0  0.7499998992943957  0.7500000204666925  0.7499991724025461  1.0000
  Rh  Rh1       1.0  0.999999993897502  4.781987899214676e-09  0.9999999908990632  1.0000
  O   O1        1.0  0.26121720753394184  0.26121708280516864  0.7387827950707186  1.0000
  O   O2        1.0  0.7387829667235727  0.7387827763171916  0.2612174271338833  1.0000
  O   O3        1.0  0.7387830967248535  0.2612168875408136  0.2612173617653665  1.0000
  O   O4        1.0  0.2612173913735798  0.7387830241834094  0.7387827650685773  1.0000
  O   O5        1.0  0.261216923505221  0.7387828676513114  0.2612173523646415  1.0000
  O   O6        1.0  0.7387831204548451  0.2612173620751135  0.7387826696448833  1.0000
