data_image0
_chemical_formula_structural       V2RhS6
_chemical_formula_sum              "V2 Rh1 S6"
_cell_length_a       6.033831595649398
_cell_length_b       6.033831755671784
_cell_length_c       6.033831825274647
_cell_angle_alpha    59.999998481830154
_cell_angle_beta     59.99999818503278
_cell_angle_gamma    59.99999990041235

_space_group_name_H-M_alt    "P 1"
_space_group_IT_number       1

loop_
  _space_group_symop_operation_xyz
  'x, y, z'

loop_
  _atom_site_type_symbol
  _atom_site_label
  _atom_site_symmetry_multiplicity
  _atom_site_fract_x
  _atom_site_fract_y
  _atom_site_fract_z
  _atom_site_occupancy
  V   V1        1.0  0.24999998047516178  0.2500000046700498  0.2500000269947462  1.0000
  V   V2        1.0  0.7499999841075413  0.7499999835632077  0.7499999522248809  1.0000
  Rh  Rh1       1.0  2.002595689470875e-08  2.0297963170031504e-08  0.9999998919999933  1.0000
  S   S1        1.0  0.26618144091631907  0.2661813886184192  0.7338186058132186  1.0000
  S   S2        1.0  0.7338185503422419  0.7338186057042254  0.2661815144693409  1.0000
  S   S3        1.0  0.7338186085386842  0.26618142233125797  0.26618140649850386  1.0000
  S   S4        1.0  0.26618136456779695  0.7338186207064966  0.733818604035207  1.0000
  S   S5        1.0  0.2661814658527107  0.733818548616908  0.2661814027031324  1.0000
  S   S6        1.0  0.7338185952281078  0.26618139699062926  0.7338185976426246  1.0000
