data_image0
_chemical_formula_structural       V2RuO6
_chemical_formula_sum              "V2 Ru1 O6"
_cell_length_a       5.162125717824052
_cell_length_b       5.1621256430867435
_cell_length_c       5.162125679879295
_cell_angle_alpha    59.99999970826997
_cell_angle_beta     59.99999941586059
_cell_angle_gamma    59.99999944322988

_space_group_name_H-M_alt    "P 1"
_space_group_IT_number       1

loop_
  _space_group_symop_operation_xyz
  'x, y, z'

loop_
  _atom_site_type_symbol
  _atom_site_label
  _atom_site_symmetry_multiplicity
  _atom_site_fract_x
  _atom_site_fract_y
  _atom_site_fract_z
  _atom_site_occupancy
  V   V1        1.0  0.24999996500173782  0.250000013002296  0.2500002011223395  1.0000
  V   V2        1.0  0.7499998709849666  0.7500001647525255  0.7500001127629953  1.0000
  Ru  Ru1       1.0  6.710610809104719e-09  0.0  0.9999999908331352  1.0000
  O   O1        1.0  0.2543839406692235  0.25438355702539106  0.7456161719905581  1.0000
  O   O2        1.0  0.7456161799467581  0.7456163573753563  0.2543837186364565  1.0000
  O   O3        1.0  0.7456162972168228  0.25438390476701606  0.2543835709435733  1.0000
  O   O4        1.0  0.2543837264421701  0.7456162065561462  0.7456162697007286  1.0000
  O   O5        1.0  0.25438369389159626  0.7456161151748458  0.25438379544928075  1.0000
  O   O6        1.0  0.7456163146793375  0.25438369246073655  0.7456161484044335  1.0000
