data_image0
_chemical_formula_structural       V2RuS6
_chemical_formula_sum              "V2 Ru1 S6"
_cell_length_a       5.970387265968237
_cell_length_b       5.970387316698202
_cell_length_c       5.970387355816488
_cell_angle_alpha    60.00000029597566
_cell_angle_beta     59.99999959548418
_cell_angle_gamma    60.00000025668542

_space_group_name_H-M_alt    "P 1"
_space_group_IT_number       1

loop_
  _space_group_symop_operation_xyz
  'x, y, z'

loop_
  _atom_site_type_symbol
  _atom_site_label
  _atom_site_symmetry_multiplicity
  _atom_site_fract_x
  _atom_site_fract_y
  _atom_site_fract_z
  _atom_site_occupancy
  V   V1        1.0  0.2500000307185262  0.2500000020321257  0.24999997674535437  1.0000
  V   V2        1.0  0.750000009537928  0.7500000450723285  0.7500000190542407  1.0000
  Ru  Ru1       1.0  3.2814949165492908e-09  3.077048762123731e-08  0.999999959524944  1.0000
  S   S1        1.0  0.2673296363620124  0.26732960704461106  0.7326703701721594  1.0000
  S   S2        1.0  0.7326704035827404  0.7326703887756967  0.26732959615256385  1.0000
  S   S3        1.0  0.7326703589792628  0.2673295751914959  0.26732965262610214  1.0000
  S   S4        1.0  0.2673295907692308  0.7326703837042268  0.7326704308569055  1.0000
  S   S5        1.0  0.2673296045996162  0.7326703873176975  0.2673295950790327  1.0000
  S   S6        1.0  0.7326703564011969  0.26732959004031737  0.7326703864501428  1.0000
