data_image0
_chemical_formula_structural       V2RuSe6
_chemical_formula_sum              "V2 Ru1 Se6"
_cell_length_a       6.2874275665774535
_cell_length_b       6.287428420760191
_cell_length_c       6.287426825916339
_cell_angle_alpha    60.00001249827536
_cell_angle_beta     59.99999893268631
_cell_angle_gamma    60.000004252842366

_space_group_name_H-M_alt    "P 1"
_space_group_IT_number       1

loop_
  _space_group_symop_operation_xyz
  'x, y, z'

loop_
  _atom_site_type_symbol
  _atom_site_label
  _atom_site_symmetry_multiplicity
  _atom_site_fract_x
  _atom_site_fract_y
  _atom_site_fract_z
  _atom_site_occupancy
  V   V1        1.0  0.250000783858687  0.2500009643755711  0.2499984335272415  1.0000
  V   V2        1.0  0.7500008516600345  0.7499993654325501  0.7500013102525008  1.0000
  Ru  Ru1       1.0  1.647873809711725e-07  0.9999999298746585  1.2921178198276003e-07  1.0000
  Se  Se1       1.0  0.27120713980182953  0.2712077946173622  0.7287927352648538  1.0000
  Se  Se2       1.0  0.7287919401299172  0.728792554670035  0.27120667814068905  1.0000
  Se  Se3       1.0  0.7287926092715142  0.27120706901790625  0.2712080246250721  1.0000
  Se  Se4       1.0  0.2712069137558576  0.7287926121308309  0.7287925462445295  1.0000
  Se  Se5       1.0  0.27120792869326144  0.7287920601967445  0.2712069559532598  1.0000
  Se  Se6       1.0  0.7287915820163795  0.2712076248478229  0.7287932692226242  1.0000
