data_image0
_chemical_formula_structural       V2SBr6
_chemical_formula_sum              "V2 S1 Br6"
_cell_length_a       6.885830201230705
_cell_length_b       6.88583021680697
_cell_length_c       6.885830219879904
_cell_angle_alpha    60.0000004605306
_cell_angle_beta     59.99999910535386
_cell_angle_gamma    60.000000180066834

_space_group_name_H-M_alt    "P 1"
_space_group_IT_number       1

loop_
  _space_group_symop_operation_xyz
  'x, y, z'

loop_
  _atom_site_type_symbol
  _atom_site_label
  _atom_site_symmetry_multiplicity
  _atom_site_fract_x
  _atom_site_fract_y
  _atom_site_fract_z
  _atom_site_occupancy
  V   V1        1.0  0.24999999370589393  0.24999996581695755  0.2499999528203967  1.0000
  V   V2        1.0  0.7500000110958516  0.7500000842086166  0.7499999403389931  1.0000
  S   S1        1.0  2.2698050186635315e-09  0.9999999982213544  0.999999951829916  1.0000
  Br  Br1       1.0  0.2577660054170938  0.25776602751744465  0.7422340134051859  1.0000
  Br  Br2       1.0  0.742233968828056  0.7422339833779369  0.2577660423962762  1.0000
  Br  Br3       1.0  0.7422339841845683  0.2577659973547887  0.25776604885987386  1.0000
  Br  Br4       1.0  0.2577660189751583  0.7422339921968509  0.7422340046084281  1.0000
  Br  Br5       1.0  0.25776601156334367  0.7422339507611697  0.2577660587983438  1.0000
  Br  Br6       1.0  0.7422339957640078  0.2577659961029855  0.7422339848847337  1.0000
