data_image0
_chemical_formula_structural       V2SCl6
_chemical_formula_sum              "V2 S1 Cl6"
_cell_length_a       6.644084252702409
_cell_length_b       6.644084414863709
_cell_length_c       6.644084557811199
_cell_angle_alpha    60.00000085635649
_cell_angle_beta     59.99999936250771
_cell_angle_gamma    59.99999942750935

_space_group_name_H-M_alt    "P 1"
_space_group_IT_number       1

loop_
  _space_group_symop_operation_xyz
  'x, y, z'

loop_
  _atom_site_type_symbol
  _atom_site_label
  _atom_site_symmetry_multiplicity
  _atom_site_fract_x
  _atom_site_fract_y
  _atom_site_fract_z
  _atom_site_occupancy
  V   V1        1.0  0.25000003981841107  0.24999992911348487  0.2500000338729744  1.0000
  V   V2        1.0  0.7499998988906058  0.750000052784494  0.7499999136184121  1.0000
  S   S1        1.0  0.9999999916265816  0.9999999834097478  1.69971297981004e-08  1.0000
  Cl  Cl1       1.0  0.25210326189651  0.252103259565491  0.7478967292147122  1.0000
  Cl  Cl2       1.0  0.7478967272819531  0.7478967794766921  0.2521033225051657  1.0000
  Cl  Cl3       1.0  0.7478966570026284  0.25210330030289424  0.2521032207386634  1.0000
  Cl  Cl4       1.0  0.25210333391377243  0.7478967387392884  0.7478967879694951  1.0000
  Cl  Cl5       1.0  0.2521032934149302  0.7478968053121626  0.25210319624792515  1.0000
  Cl  Cl6       1.0  0.7478967945639832  0.25210315630884  0.7478967725376021  1.0000
