data_image0
_chemical_formula_structural       V2SeO6
_chemical_formula_sum              "V2 Se1 O6"
_cell_length_a       5.080252015609405
_cell_length_b       5.080251970100798
_cell_length_c       5.080252109733026
_cell_angle_alpha    60.00000003287621
_cell_angle_beta     60.00000003008382
_cell_angle_gamma    60.00000167556682

_space_group_name_H-M_alt    "P 1"
_space_group_IT_number       1

loop_
  _space_group_symop_operation_xyz
  'x, y, z'

loop_
  _atom_site_type_symbol
  _atom_site_label
  _atom_site_symmetry_multiplicity
  _atom_site_fract_x
  _atom_site_fract_y
  _atom_site_fract_z
  _atom_site_occupancy
  V   V1        1.0  0.24999983445208526  0.24999988936611436  0.25000006335987324  1.0000
  V   V2        1.0  0.7499997108495693  0.7500001502574493  0.7499998295061643  1.0000
  Se  Se1       1.0  4.0246833261073626e-08  0.99999999517841  3.034798915495128e-12  1.0000
  O   O1        1.0  0.24716179957330564  0.24716175790005646  0.7528382695499609  1.0000
  O   O2        1.0  0.752838340224949  0.7528381756485204  0.24716181412305327  1.0000
  O   O3        1.0  0.7528382272601308  0.24716171310812876  0.2471618252417887  1.0000
  O   O4        1.0  0.2471619320292727  0.7528382710671543  0.7528382115618609  1.0000
  O   O5        1.0  0.24716179626982818  0.752838334397555  0.24716177454029292  1.0000
  O   O6        1.0  0.7528383049557005  0.24716171486920527  0.7528382311918681  1.0000
