data_image0
_chemical_formula_structural       V2SeS6
_chemical_formula_sum              "V2 Se1 S6"
_cell_length_a       6.090255752385423
_cell_length_b       6.090255937014303
_cell_length_c       6.090256057167777
_cell_angle_alpha    59.99999799752754
_cell_angle_beta     59.99999997071608
_cell_angle_gamma    60.000000612960605

_space_group_name_H-M_alt    "P 1"
_space_group_IT_number       1

loop_
  _space_group_symop_operation_xyz
  'x, y, z'

loop_
  _atom_site_type_symbol
  _atom_site_label
  _atom_site_symmetry_multiplicity
  _atom_site_fract_x
  _atom_site_fract_y
  _atom_site_fract_z
  _atom_site_occupancy
  V   V1        1.0  0.2500000226578595  0.25000002277509337  0.2500000141613882  1.0000
  V   V2        1.0  0.7500000239651815  0.7499999898966396  0.7499999739872837  1.0000
  Se  Se1       1.0  0.9999995207505005  4.0823114456362797e-07  0.9999995494869095  1.0000
  S   S1        1.0  0.2554986352324514  0.25549870459069574  0.7445012769021041  1.0000
  S   S2        1.0  0.7445014020815096  0.7445013985756272  0.255498562283984  1.0000
  S   S3        1.0  0.7445010088514421  0.25549888093149997  0.25549884640071296  1.0000
  S   S4        1.0  0.25549877430587353  0.7445011940809463  0.7445012209648889  1.0000
  S   S5        1.0  0.255499041624532  0.7445009994475609  0.25549899127524034  1.0000
  S   S6        1.0  0.7445015863090335  0.25549838981700745  0.7445015827584432  1.0000
