data_image0
_chemical_formula_structural       V2SF6
_chemical_formula_sum              "V2 S1 F6"
_cell_length_a       5.391709621044911
_cell_length_b       5.391677375677049
_cell_length_c       5.391698445115906
_cell_angle_alpha    59.99992921097296
_cell_angle_beta     60.00014570829217
_cell_angle_gamma    59.999996598879484

_space_group_name_H-M_alt    "P 1"
_space_group_IT_number       1

loop_
  _space_group_symop_operation_xyz
  'x, y, z'

loop_
  _atom_site_type_symbol
  _atom_site_label
  _atom_site_symmetry_multiplicity
  _atom_site_fract_x
  _atom_site_fract_y
  _atom_site_fract_z
  _atom_site_occupancy
  V   V1        1.0  0.25001132249425045  0.24993843349550302  0.2501533930664463  1.0000
  V   V2        1.0  0.7499495670698291  0.7500099198786432  0.7501372858534514  1.0000
  S   S1        1.0  4.860056670485646e-06  6.326260733718133e-06  0.9999620200208134  1.0000
  F   F1        1.0  0.2553746788784541  0.25534366993935304  0.7445917698178106  1.0000
  F   F2        1.0  0.7446303697981376  0.7446666217225983  0.2553206883376059  1.0000
  F   F3        1.0  0.7446455219151428  0.255353015901733  0.255331781332654  1.0000
  F   F4        1.0  0.2553550648784828  0.7446786283298807  0.7445845819544146  1.0000
  F   F5        1.0  0.2553784189242494  0.7446473877173803  0.25530567738276927  1.0000
  F   F6        1.0  0.7446499785054875  0.25535604616848717  0.7446127868335743  1.0000
