data_image0
_chemical_formula_structural       V2SiO6
_chemical_formula_sum              "V2 Si1 O6"
_cell_length_a       4.962675652295054
_cell_length_b       4.962675666956688
_cell_length_c       4.962675713264528
_cell_angle_alpha    59.99999854911031
_cell_angle_beta     59.99999883520288
_cell_angle_gamma    59.999999863633676

_space_group_name_H-M_alt    "P 1"
_space_group_IT_number       1

loop_
  _space_group_symop_operation_xyz
  'x, y, z'

loop_
  _atom_site_type_symbol
  _atom_site_label
  _atom_site_symmetry_multiplicity
  _atom_site_fract_x
  _atom_site_fract_y
  _atom_site_fract_z
  _atom_site_occupancy
  V   V1        1.0  0.25000028076190345  0.25000019531423834  0.2500001177270552  1.0000
  V   V2        1.0  0.7500000938565472  0.7499996900905109  0.7500005305084211  1.0000
  Si  Si1       1.0  0.9999999646992372  0.9999999802567006  1.7446821477191327e-08  1.0000
  O   O1        1.0  0.24820510051972117  0.24820502336813735  0.7517948189756831  1.0000
  O   O2        1.0  0.7517948045346572  0.7517950421942255  0.24820481329883085  1.0000
  O   O3        1.0  0.751794839307833  0.2482051979171929  0.24820494026855394  1.0000
  O   O4        1.0  0.24820492009959064  0.7517948997280289  0.7517948535701927  1.0000
  O   O5        1.0  0.24820513110444542  0.7517946900971755  0.2482050226389721  1.0000
  O   O6        1.0  0.7517948760012547  0.24820522985835372  0.7517948611280868  1.0000
