data_image0
_chemical_formula_structural       V2SiTe6
_chemical_formula_sum              "V2 Si1 Te6"
_cell_length_a       7.129273510928581
_cell_length_b       7.129273490163351
_cell_length_c       7.129273416288066
_cell_angle_alpha    60.000000154512094
_cell_angle_beta     60.00000052599902
_cell_angle_gamma    60.00000026324258

_space_group_name_H-M_alt    "P 1"
_space_group_IT_number       1

loop_
  _space_group_symop_operation_xyz
  'x, y, z'

loop_
  _atom_site_type_symbol
  _atom_site_label
  _atom_site_symmetry_multiplicity
  _atom_site_fract_x
  _atom_site_fract_y
  _atom_site_fract_z
  _atom_site_occupancy
  V   V1        1.0  0.24999993659961775  0.2500000268139477  0.2500000590393225  1.0000
  V   V2        1.0  0.7500000497725866  0.7499999533165197  0.749999987440352  1.0000
  Si  Si1       1.0  6.004255734017907e-09  0.9999999965641805  0.9999999678570972  1.0000
  Te  Te1       1.0  0.2572379909979472  0.2572380399243929  0.7427619890703645  1.0000
  Te  Te2       1.0  0.7427620204214478  0.7427619573851721  0.2572380433095034  1.0000
  Te  Te3       1.0  0.7427619569913915  0.2572380310210498  0.2572380126794435  1.0000
  Te  Te4       1.0  0.25723799713352263  0.7427620264153579  0.7427619691908813  1.0000
  Te  Te5       1.0  0.25723800997187357  0.7427619623303935  0.2572380139142898  1.0000
  Te  Te6       1.0  0.7427620316652979  0.2572380074926153  0.7427619511745963  1.0000
