data_image0
_chemical_formula_structural       V2SiS6
_chemical_formula_sum              "V2 Si1 S6"
_cell_length_a       5.925958641109045
_cell_length_b       5.925958066575718
_cell_length_c       5.92595853453125
_cell_angle_alpha    59.99999759566134
_cell_angle_beta     60.00000054159927
_cell_angle_gamma    59.99999862749632

_space_group_name_H-M_alt    "P 1"
_space_group_IT_number       1

loop_
  _space_group_symop_operation_xyz
  'x, y, z'

loop_
  _atom_site_type_symbol
  _atom_site_label
  _atom_site_symmetry_multiplicity
  _atom_site_fract_x
  _atom_site_fract_y
  _atom_site_fract_z
  _atom_site_occupancy
  V   V1        1.0  0.24999988479398205  0.2500000231269446  0.2500000164181011  1.0000
  V   V2        1.0  0.7499999065515437  0.750000061113855  0.7500001719891474  1.0000
  Si  Si1       1.0  3.5073835107886134e-08  6.34610189703628e-17  0.9999997985265946  1.0000
  S   S1        1.0  0.25791583206636093  0.25791523738508404  0.7420845491853867  1.0000
  S   S2        1.0  0.742084653046286  0.7420845017091721  0.2579155020363677  1.0000
  S   S3        1.0  0.7420845204816019  0.2579156244181782  0.25791529507364386  1.0000
  S   S4        1.0  0.25791539153183324  0.7420847057653769  0.7420845075293867  1.0000
  S   S5        1.0  0.2579152811985888  0.7420845991228243  0.25791539456880036  1.0000
  S   S6        1.0  0.7420845266438274  0.25791530117759587  0.7420847037486487  1.0000
