data_image0
_chemical_formula_structural       V2SI6
_chemical_formula_sum              "V2 S1 I6"
_cell_length_a       7.609675044076454
_cell_length_b       7.609675240871115
_cell_length_c       7.609675125954355
_cell_angle_alpha    59.99999906374187
_cell_angle_beta     60.00000005552103
_cell_angle_gamma    59.9999996630625

_space_group_name_H-M_alt    "P 1"
_space_group_IT_number       1

loop_
  _space_group_symop_operation_xyz
  'x, y, z'

loop_
  _atom_site_type_symbol
  _atom_site_label
  _atom_site_symmetry_multiplicity
  _atom_site_fract_x
  _atom_site_fract_y
  _atom_site_fract_z
  _atom_site_occupancy
  V   V1        1.0  0.24999999958466843  0.2500000239089115  0.24999995175954504  1.0000
  V   V2        1.0  0.7500000032615713  0.7499999944727728  0.7500000112364398  1.0000
  S   S1        1.0  0.9999999746326578  3.057969307012128e-08  0.9999999605985609  1.0000
  I   I1        1.0  0.2655297277802554  0.2655297378657399  0.7344702538259749  1.0000
  I   I2        1.0  0.7344702803545888  0.7344702418889647  0.265529725839198  1.0000
  I   I3        1.0  0.7344702695036258  0.2655297468588646  0.26552974033388343  1.0000
  I   I4        1.0  0.26552972586339835  0.7344702393336686  0.7344703147726952  1.0000
  I   I5        1.0  0.2655297425439122  0.734470265399587  0.2655297327402003  1.0000
  I   I6        1.0  0.7344702739748208  0.26552972562131866  0.7344703080622209  1.0000
