data_image0
_chemical_formula_structural       V2SnO6
_chemical_formula_sum              "V2 Sn1 O6"
_cell_length_a       5.236444748572295
_cell_length_b       5.2364445215631426
_cell_length_c       5.236444756994776
_cell_angle_alpha    59.9999985724667
_cell_angle_beta     59.99999948365258
_cell_angle_gamma    59.999997417971485

_space_group_name_H-M_alt    "P 1"
_space_group_IT_number       1

loop_
  _space_group_symop_operation_xyz
  'x, y, z'

loop_
  _atom_site_type_symbol
  _atom_site_label
  _atom_site_symmetry_multiplicity
  _atom_site_fract_x
  _atom_site_fract_y
  _atom_site_fract_z
  _atom_site_occupancy
  V   V1        1.0  0.2500004544524476  0.24999968353945562  0.24999997636144464  1.0000
  V   V2        1.0  0.7500002067449727  0.7499998809230621  0.7500000253989333  1.0000
  Sn  Sn1       1.0  0.9999999605523588  2.5727751155598808e-08  0.9999999973114819  1.0000
  O   O1        1.0  0.2690501541693079  0.2690504500800169  0.7309495142984934  1.0000
  O   O2        1.0  0.7309495158458817  0.7309498651650554  0.26905034603383493  1.0000
  O   O3        1.0  0.7309495648242746  0.26905040885868015  0.2690502684599846  1.0000
  O   O4        1.0  0.26905026084521033  0.73094968419218  0.7309497091687777  1.0000
  O   O5        1.0  0.269050328947315  0.7309497906597864  0.2690503176338163  1.0000
  O   O6        1.0  0.7309495214027653  0.26905024158002655  0.7309498346549681  1.0000
