data_image0
_chemical_formula_structural       V2SnTe6
_chemical_formula_sum              "V2 Sn1 Te6"
_cell_length_a       7.3790704960555455
_cell_length_b       7.379070490292868
_cell_length_c       7.379070471184709
_cell_angle_alpha    60.00000030444082
_cell_angle_beta     60.0000004030932
_cell_angle_gamma    59.99999997760548

_space_group_name_H-M_alt    "P 1"
_space_group_IT_number       1

loop_
  _space_group_symop_operation_xyz
  'x, y, z'

loop_
  _atom_site_type_symbol
  _atom_site_label
  _atom_site_symmetry_multiplicity
  _atom_site_fract_x
  _atom_site_fract_y
  _atom_site_fract_z
  _atom_site_occupancy
  V   V1        1.0  0.24999990132868297  0.24999996196219834  0.2500000943094924  1.0000
  V   V2        1.0  0.7500000259426596  0.7500000983352263  0.7499999560977508  1.0000
  Sn  Sn1       1.0  0.9999999946736157  0.9999999784231858  0.9999999904134671  1.0000
  Te  Te1       1.0  0.27084401453228457  0.2708439999748148  0.7291559949857841  1.0000
  Te  Te2       1.0  0.7291560238909859  0.7291559756751075  0.2708440191311144  1.0000
  Te  Te3       1.0  0.7291560276764454  0.27084395199668104  0.27084403006729135  1.0000
  Te  Te4       1.0  0.27084396414898565  0.7291560601678501  0.7291559619875375  1.0000
  Te  Te5       1.0  0.27084401817796117  0.729156011403281  0.27084397640214364  1.0000
  Te  Te6       1.0  0.72915602659956  0.2708439592673765  0.7291559814647081  1.0000
