data_image0
_chemical_formula_structural       V2SnS6
_chemical_formula_sum              "V2 Sn1 S6"
_cell_length_a       6.3993949545822035
_cell_length_b       6.399394658859862
_cell_length_c       6.399395067097755
_cell_angle_alpha    60.00000144114656
_cell_angle_beta     59.99999761407096
_cell_angle_gamma    60.000000174802686

_space_group_name_H-M_alt    "P 1"
_space_group_IT_number       1

loop_
  _space_group_symop_operation_xyz
  'x, y, z'

loop_
  _atom_site_type_symbol
  _atom_site_label
  _atom_site_symmetry_multiplicity
  _atom_site_fract_x
  _atom_site_fract_y
  _atom_site_fract_z
  _atom_site_occupancy
  V   V1        1.0  0.24999981304534452  0.2500000318871804  0.25000013497276213  1.0000
  V   V2        1.0  0.750000163209452  0.7499999425539488  0.7499999194164535  1.0000
  Sn  Sn1       1.0  0.9999999865499667  0.999999948326193  1.1850754258728808e-07  1.0000
  S   S1        1.0  0.26880265910986273  0.26880288266794167  0.7311970518466694  1.0000
  S   S2        1.0  0.7311974358156598  0.7311970822039489  0.26880262608637395  1.0000
  S   S3        1.0  0.7311970721747257  0.2688029094629711  0.2688027414359807  1.0000
  S   S4        1.0  0.2688027771471451  0.7311974132979191  0.7311971819454083  1.0000
  S   S5        1.0  0.26880294555196554  0.7311970145020269  0.268802994402253  1.0000
  S   S6        1.0  0.7311971590554412  0.2688027264500378  0.7311972516308273  1.0000
