data_image0
_chemical_formula_structural       V2SO6
_chemical_formula_sum              "V2 S1 O6"
_cell_length_a       4.877253153711165
_cell_length_b       4.877253309716837
_cell_length_c       4.87725162196817
_cell_angle_alpha    59.99999640858733
_cell_angle_beta     59.999992131763335
_cell_angle_gamma    59.99998475920648

_space_group_name_H-M_alt    "P 1"
_space_group_IT_number       1

loop_
  _space_group_symop_operation_xyz
  'x, y, z'

loop_
  _atom_site_type_symbol
  _atom_site_label
  _atom_site_symmetry_multiplicity
  _atom_site_fract_x
  _atom_site_fract_y
  _atom_site_fract_z
  _atom_site_occupancy
  V   V1        1.0  0.25000129228633894  0.24999905490952296  0.24999976329219453  1.0000
  V   V2        1.0  0.750000667707568  0.7499991711271878  0.7500002849175451  1.0000
  S   S1        1.0  9.328934659230298e-08  3.264473021442718e-08  2.630362196535032e-07  1.0000
  O   O1        1.0  0.23865222858483026  0.23865188983950775  0.76134795414383  1.0000
  O   O2        1.0  0.7613470091218238  0.7613488423120224  0.23865187614894234  1.0000
  O   O3        1.0  0.7613478073040695  0.2386518589097597  0.2386524683511427  1.0000
  O   O4        1.0  0.23865193033563628  0.7613486874175723  0.7613473299575936  1.0000
  O   O5        1.0  0.23865109642374996  0.7613478766353007  0.2386530080729551  1.0000
  O   O6        1.0  0.7613483129511904  0.23865221266517544  0.7613474719789327  1.0000
