data_image0
_chemical_formula_structural       V2TaO6
_chemical_formula_sum              "V2 Ta1 O6"
_cell_length_a       5.185632976047429
_cell_length_b       5.1856329783467405
_cell_length_c       5.185632780596979
_cell_angle_alpha    59.999999745300336
_cell_angle_beta     60.00000063909327
_cell_angle_gamma    60.0000000073637

_space_group_name_H-M_alt    "P 1"
_space_group_IT_number       1

loop_
  _space_group_symop_operation_xyz
  'x, y, z'

loop_
  _atom_site_type_symbol
  _atom_site_label
  _atom_site_symmetry_multiplicity
  _atom_site_fract_x
  _atom_site_fract_y
  _atom_site_fract_z
  _atom_site_occupancy
  V   V1        1.0  0.24999963257898988  0.25000029364305676  0.2500002044466619  1.0000
  V   V2        1.0  0.7499993465333489  0.7500003495232676  0.7500007028548755  1.0000
  Ta  Ta1       1.0  2.3436615972269303e-08  1.653262812601816e-08  0.9999999761585677  1.0000
  O   O1        1.0  0.26429226102127595  0.2642917630126393  0.7357078929906913  1.0000
  O   O2        1.0  0.7357081268862407  0.7357078669397802  0.2642918079644182  1.0000
  O   O3        1.0  0.735708063947685  0.26429207603045773  0.2642918350613035  1.0000
  O   O4        1.0  0.2642920856262028  0.7357079081925609  0.73570796026931  1.0000
  O   O5        1.0  0.26429227636740354  0.7357079057653317  0.2642917914633632  1.0000
  O   O6        1.0  0.7357081807925453  0.26429179031760025  0.735707836015058  1.0000
