data_image0
_chemical_formula_structural       V2TaS6
_chemical_formula_sum              "V2 Ta1 S6"
_cell_length_a       6.274925783690262
_cell_length_b       6.274925689365602
_cell_length_c       6.274925773939598
_cell_angle_alpha    59.99999986611983
_cell_angle_beta     59.99999966382963
_cell_angle_gamma    59.99999995771513

_space_group_name_H-M_alt    "P 1"
_space_group_IT_number       1

loop_
  _space_group_symop_operation_xyz
  'x, y, z'

loop_
  _atom_site_type_symbol
  _atom_site_label
  _atom_site_symmetry_multiplicity
  _atom_site_fract_x
  _atom_site_fract_y
  _atom_site_fract_z
  _atom_site_occupancy
  V   V1        1.0  0.24999996526546617  0.249999979910433  0.2500000070347401  1.0000
  V   V2        1.0  0.7500000581597642  0.7499999494903389  0.7499999924142136  1.0000
  Ta  Ta1       1.0  1.862507159947005e-08  0.9999999882891533  0.9999999630763562  1.0000
  S   S1        1.0  0.26617238994035974  0.2661723806175871  0.7338276458140013  1.0000
  S   S2        1.0  0.7338276629086299  0.7338275819639175  0.2661724386687439  1.0000
  S   S3        1.0  0.7338275655058171  0.26617244170005283  0.266172362995738  1.0000
  S   S4        1.0  0.2661723738258845  0.7338276516525716  0.7338275678384565  1.0000
  S   S5        1.0  0.2661724275487846  0.7338276063739977  0.26617239832536943  1.0000
  S   S6        1.0  0.733827545595099  0.26617241866535496  0.733827611911499  1.0000
