data_image0
_chemical_formula_structural       V2TiO6
_chemical_formula_sum              "V2 Ti1 O6"
_cell_length_a       5.04677281256005
_cell_length_b       5.046772734367518
_cell_length_c       5.046772876229003
_cell_angle_alpha    59.99999893492502
_cell_angle_beta     59.999998790303884
_cell_angle_gamma    59.99999925499982

_space_group_name_H-M_alt    "P 1"
_space_group_IT_number       1

loop_
  _space_group_symop_operation_xyz
  'x, y, z'

loop_
  _atom_site_type_symbol
  _atom_site_label
  _atom_site_symmetry_multiplicity
  _atom_site_fract_x
  _atom_site_fract_y
  _atom_site_fract_z
  _atom_site_occupancy
  V   V1        1.0  0.24999997472468274  0.2500000017478535  0.2499998994227655  1.0000
  V   V2        1.0  0.7499996514580299  0.7500003085920929  0.7499996770076479  1.0000
  Ti  Ti1       1.0  1.50682651884227e-08  9.707153145589253e-09  1.3371325900108467e-08  1.0000
  O   O1        1.0  0.26304197491754955  0.26304168642515774  0.7369582970270303  1.0000
  O   O2        1.0  0.7369581574283974  0.7369581968000563  0.26304198094675674  1.0000
  O   O3        1.0  0.7369581869855188  0.263041692250961  0.2630419667273845  1.0000
  O   O4        1.0  0.2630419739267268  0.7369581327313345  0.7369581972895366  1.0000
  O   O5        1.0  0.2630418439885262  0.736958197562122  0.2630418562205146  1.0000
  O   O6        1.0  0.7369582168267016  0.26304179729535165  0.7369581579824005  1.0000
