data_image0
_chemical_formula_structural       V2TiSe6
_chemical_formula_sum              "V2 Ti1 Se6"
_cell_length_a       6.535571971806756
_cell_length_b       6.535571739718855
_cell_length_c       6.535571874091404
_cell_angle_alpha    60.00000054002691
_cell_angle_beta     59.999998043139826
_cell_angle_gamma    59.999998824557

_space_group_name_H-M_alt    "P 1"
_space_group_IT_number       1

loop_
  _space_group_symop_operation_xyz
  'x, y, z'

loop_
  _atom_site_type_symbol
  _atom_site_label
  _atom_site_symmetry_multiplicity
  _atom_site_fract_x
  _atom_site_fract_y
  _atom_site_fract_z
  _atom_site_occupancy
  V   V1        1.0  0.249999767863468  0.25000018285288705  0.2500000472488944  1.0000
  V   V2        1.0  0.7500002509043  0.7500000069820542  0.749999547175492  1.0000
  Ti  Ti1       1.0  1.9933822056666992e-08  3.560538066594263e-08  0.9999999416286389  1.0000
  Se  Se1       1.0  0.2615251437118397  0.2615251409792632  0.738474787270934  1.0000
  Se  Se2       1.0  0.7384748949776639  0.7384747452729589  0.2615252733625938  1.0000
  Se  Se3       1.0  0.7384748866678881  0.26152503140116395  0.2615252452210225  1.0000
  Se  Se4       1.0  0.26152515882243027  0.7384747761444271  0.738474924809636  1.0000
  Se  Se5       1.0  0.26152500641223203  0.7384747969865574  0.26152538311447193  1.0000
  Se  Se6       1.0  0.7384748914481166  0.26152527853638174  0.7384748261982215  1.0000
