data_image0
_chemical_formula_structural       V2WO6
_chemical_formula_sum              "V2 W1 O6"
_cell_length_a       5.278884657590624
_cell_length_b       5.278884813153971
_cell_length_c       5.2788846827713884
_cell_angle_alpha    59.99999867732683
_cell_angle_beta     59.99999769073272
_cell_angle_gamma    59.99999825820258

_space_group_name_H-M_alt    "P 1"
_space_group_IT_number       1

loop_
  _space_group_symop_operation_xyz
  'x, y, z'

loop_
  _atom_site_type_symbol
  _atom_site_label
  _atom_site_symmetry_multiplicity
  _atom_site_fract_x
  _atom_site_fract_y
  _atom_site_fract_z
  _atom_site_occupancy
  V   V1        1.0  0.24999989040324722  0.24999991749851638  0.25000046275820814  1.0000
  V   V2        1.0  0.7500001063270313  0.7499996086504267  0.7500009092347764  1.0000
  W   W1        1.0  2.5100081125952227e-08  0.9999999837594216  0.9999999860985508  1.0000
  O   O1        1.0  0.2567618971777184  0.25676191076484534  0.7432380151918827  1.0000
  O   O2        1.0  0.7432381184352039  0.7432381165219685  0.25676144113807503  1.0000
  O   O3        1.0  0.7432379811859339  0.25676214945198106  0.25676160203193094  1.0000
  O   O4        1.0  0.2567618320757107  0.7432382420878032  0.7432379324716996  1.0000
  O   O5        1.0  0.25676187869813855  0.7432380944873533  0.2567618171938582  1.0000
  O   O6        1.0  0.7432382950251235  0.2567619768810231  0.7432378506061698  1.0000
