data_image0
_chemical_formula_structural       V2WSe6
_chemical_formula_sum              "V2 W1 Se6"
_cell_length_a       6.739114214829073
_cell_length_b       6.739114041059175
_cell_length_c       6.739114338664198
_cell_angle_alpha    59.99999827355968
_cell_angle_beta     59.99999851045372
_cell_angle_gamma    59.999998645859925

_space_group_name_H-M_alt    "P 1"
_space_group_IT_number       1

loop_
  _space_group_symop_operation_xyz
  'x, y, z'

loop_
  _atom_site_type_symbol
  _atom_site_label
  _atom_site_symmetry_multiplicity
  _atom_site_fract_x
  _atom_site_fract_y
  _atom_site_fract_z
  _atom_site_occupancy
  V   V1        1.0  0.25000028163285165  0.24999978887948246  0.25000000273987666  1.0000
  V   V2        1.0  0.7499999307070608  0.7500002844091919  0.7499995864935222  1.0000
  W   W1        1.0  0.9999999785568968  0.9999999563831724  1.175572247844852e-08  1.0000
  Se  Se1       1.0  0.2545507349723677  0.25455063253496696  0.7454493409471574  1.0000
  Se  Se2       1.0  0.7454491909662934  0.7454493644242586  0.2545508184267155  1.0000
  Se  Se3       1.0  0.7454492484181868  0.25455051353295494  0.2545508533706269  1.0000
  Se  Se4       1.0  0.2545507314861575  0.7454494089141903  0.7454492702763347  1.0000
  Se  Se5       1.0  0.2545506133644788  0.7454493651399602  0.25455075034734675  1.0000
  Se  Se6       1.0  0.7454492831162155  0.25455067907082846  0.745449385290983  1.0000
