data_image0
_chemical_formula_structural       V2WS6
_chemical_formula_sum              "V2 W1 S6"
_cell_length_a       6.3412345647779516
_cell_length_b       6.34123473917017
_cell_length_c       6.341234661597234
_cell_angle_alpha    60.000000601912106
_cell_angle_beta     60.00000131937438
_cell_angle_gamma    60.00000359602308

_space_group_name_H-M_alt    "P 1"
_space_group_IT_number       1

loop_
  _space_group_symop_operation_xyz
  'x, y, z'

loop_
  _atom_site_type_symbol
  _atom_site_label
  _atom_site_symmetry_multiplicity
  _atom_site_fract_x
  _atom_site_fract_y
  _atom_site_fract_z
  _atom_site_occupancy
  V   V1        1.0  0.24999993636461987  0.2500001258489364  0.25000007351372067  1.0000
  V   V2        1.0  0.7499999244979957  0.750000118739473  0.7500001329677869  1.0000
  W   W1        1.0  0.9999999791428541  0.9999999478522507  2.698954817464186e-07  1.0000
  S   S1        1.0  0.257545070026136  0.25754506267514854  0.7424547591337439  1.0000
  S   S2        1.0  0.7424549978209296  0.7424549269687252  0.25754495092442153  1.0000
  S   S3        1.0  0.7424549145121024  0.25754511490504584  0.2575452006486736  1.0000
  S   S4        1.0  0.2575452131324998  0.7424548264538772  0.742454703929655  1.0000
  S   S5        1.0  0.2575453131094549  0.7424547128287559  0.25754502295715376  1.0000
  S   S6        1.0  0.7424546087879214  0.25754519569639434  0.7424549015619336  1.0000
