data_image0
_chemical_formula_structural       V2WTe6
_chemical_formula_sum              "V2 W1 Te6"
_cell_length_a       7.174525737622319
_cell_length_b       7.174525871875611
_cell_length_c       7.174525719637498
_cell_angle_alpha    60.000000034686416
_cell_angle_beta     60.00000034808576
_cell_angle_gamma    59.99999977721093

_space_group_name_H-M_alt    "P 1"
_space_group_IT_number       1

loop_
  _space_group_symop_operation_xyz
  'x, y, z'

loop_
  _atom_site_type_symbol
  _atom_site_label
  _atom_site_symmetry_multiplicity
  _atom_site_fract_x
  _atom_site_fract_y
  _atom_site_fract_z
  _atom_site_occupancy
  V   V1        1.0  0.250000028344895  0.24999998186824585  0.2500000122786809  1.0000
  V   V2        1.0  0.7500000115524839  0.7499999729179272  0.7500000194997578  1.0000
  W   W1        1.0  0.9999999810604249  8.535371857671058e-09  0.9999999773256945  1.0000
  Te  Te1       1.0  0.2612217510197739  0.26122177011155817  0.7387782498416466  1.0000
  Te  Te2       1.0  0.7387782385607886  0.7387782632000329  0.2612217636510295  1.0000
  Te  Te3       1.0  0.7387782118380177  0.26122176374608125  0.26122172840064783  1.0000
  Te  Te4       1.0  0.26122173201142745  0.7387782763938078  0.7387782418215219  1.0000
  Te  Te5       1.0  0.26122178071232166  0.7387782326864716  0.2612217214601566  1.0000
  Te  Te6       1.0  0.7387782655252085  0.26122172722092435  0.7387782781050081  1.0000
