data_image0
_chemical_formula_structural       V2ZnF6
_chemical_formula_sum              "V2 Zn1 F6"
_cell_length_a       5.170272339171749
_cell_length_b       5.17027196844546
_cell_length_c       5.170272295634499
_cell_angle_alpha    59.99999809475412
_cell_angle_beta     59.99999909298713
_cell_angle_gamma    59.99999872113357

_space_group_name_H-M_alt    "P 1"
_space_group_IT_number       1

loop_
  _space_group_symop_operation_xyz
  'x, y, z'

loop_
  _atom_site_type_symbol
  _atom_site_label
  _atom_site_symmetry_multiplicity
  _atom_site_fract_x
  _atom_site_fract_y
  _atom_site_fract_z
  _atom_site_occupancy
  V   V1        1.0  0.24999996533423577  0.25000001347692546  0.24999994337150308  1.0000
  V   V2        1.0  0.7500000795202344  0.7500000593813471  0.7499997927068842  1.0000
  Zn  Zn1       1.0  2.6935623742181263e-08  0.9999999928935371  0.9999999765464805  1.0000
  F   F1        1.0  0.258938080169564  0.2589382016739599  0.7410618889168238  1.0000
  F   F2        1.0  0.7410618684033304  0.7410618451272822  0.25893826034327505  1.0000
  F   F3        1.0  0.7410618212540331  0.2589380445250654  0.2589382667265077  1.0000
  F   F4        1.0  0.25893814345168675  0.7410618198769563  0.7410618805648874  1.0000
  F   F5        1.0  0.258938142467029  0.7410619138105002  0.25893814553641786  1.0000
  F   F6        1.0  0.7410618417271673  0.2589380998272472  0.7410619038539376  1.0000
