data_image0
_chemical_formula_structural       V2ZnI6
_chemical_formula_sum              "V2 Zn1 I6"
_cell_length_a       7.54750223910789
_cell_length_b       7.547502296731791
_cell_length_c       7.5475022540491326
_cell_angle_alpha    59.9999998941818
_cell_angle_beta     60.000000109553426
_cell_angle_gamma    59.99999984544733

_space_group_name_H-M_alt    "P 1"
_space_group_IT_number       1

loop_
  _space_group_symop_operation_xyz
  'x, y, z'

loop_
  _atom_site_type_symbol
  _atom_site_label
  _atom_site_symmetry_multiplicity
  _atom_site_fract_x
  _atom_site_fract_y
  _atom_site_fract_z
  _atom_site_occupancy
  V   V1        1.0  0.24999999149369792  0.2500000000809672  0.25000001100893654  1.0000
  V   V2        1.0  0.7499999983100343  0.7500000343199266  0.7499999418015697  1.0000
  Zn  Zn1       1.0  0.999999987498222  0.9999999870182764  0.9999999703436183  1.0000
  I   I1        1.0  0.2558696691201066  0.255869668241419  0.7441303597035722  1.0000
  I   I2        1.0  0.7441303212563766  0.7441303093644329  0.25586970866422776  1.0000
  I   I3        1.0  0.7441303429446744  0.25586965486912655  0.25586967573867775  1.0000
  I   I4        1.0  0.2558697039457043  0.7441303276048719  0.7441303089404356  1.0000
  I   I5        1.0  0.2558696654401947  0.7441303441534228  0.2558696681220947  1.0000
  I   I6        1.0  0.7441303232048454  0.25586967077488487  0.7441303572763076  1.0000
