data_image0
_chemical_formula_structural       V2ZnBr6
_chemical_formula_sum              "V2 Zn1 Br6"
_cell_length_a       6.916721283943168
_cell_length_b       6.916721262756881
_cell_length_c       6.916721325606
_cell_angle_alpha    59.99999935867613
_cell_angle_beta     59.999999444571145
_cell_angle_gamma    59.99999985789509

_space_group_name_H-M_alt    "P 1"
_space_group_IT_number       1

loop_
  _space_group_symop_operation_xyz
  'x, y, z'

loop_
  _atom_site_type_symbol
  _atom_site_label
  _atom_site_symmetry_multiplicity
  _atom_site_fract_x
  _atom_site_fract_y
  _atom_site_fract_z
  _atom_site_occupancy
  V   V1        1.0  0.24999996179009296  0.24999996822940848  0.2500000520632955  1.0000
  V   V2        1.0  0.7499999769170799  0.7500000357201377  0.7499999480338249  1.0000
  Zn  Zn1       1.0  1.708203143155007e-08  8.853507564989583e-09  5.82726262815114e-09  1.0000
  Br  Br1       1.0  0.25544671809505437  0.25544669618593946  0.7445532878120362  1.0000
  Br  Br2       1.0  0.7445532908469633  0.7445532723495768  0.2554467324647409  1.0000
  Br  Br3       1.0  0.7445532989180168  0.25544672868758356  0.25544667771616913  1.0000
  Br  Br4       1.0  0.2554467120463825  0.7445533089052917  0.7445532824426186  1.0000
  Br  Br5       1.0  0.2554466994631407  0.7445532818050802  0.2554467269657855  1.0000
  Br  Br6       1.0  0.7445533277413763  0.2554466920425405  0.7445532930898636  1.0000
