data_image0
_chemical_formula_structural       V2ZnCl6
_chemical_formula_sum              "V2 Zn1 Cl6"
_cell_length_a       6.472506119982525
_cell_length_b       6.472506117843763
_cell_length_c       6.472506152227878
_cell_angle_alpha    60.00000025175083
_cell_angle_beta     60.000000717647126
_cell_angle_gamma    59.99999963089123

_space_group_name_H-M_alt    "P 1"
_space_group_IT_number       1

loop_
  _space_group_symop_operation_xyz
  'x, y, z'

loop_
  _atom_site_type_symbol
  _atom_site_label
  _atom_site_symmetry_multiplicity
  _atom_site_fract_x
  _atom_site_fract_y
  _atom_site_fract_z
  _atom_site_occupancy
  V   V1        1.0  0.2500000048792595  0.2500000428734714  0.24999997919897504  1.0000
  V   V2        1.0  0.7499999755009986  0.7499999356132936  0.7499999856890239  1.0000
  Zn  Zn1       1.0  0.9999999967195032  4.730566691373895e-08  1.81573266578268e-08  1.0000
  Cl  Cl1       1.0  0.2560518978335179  0.2560519351263286  0.7439480888007213  1.0000
  Cl  Cl2       1.0  0.743948076347537  0.7439480566060231  0.25605194826891936  1.0000
  Cl  Cl3       1.0  0.7439480506754808  0.256051952203072  0.2560518758977399  1.0000
  Cl  Cl4       1.0  0.2560519653663782  0.7439480584515463  0.7439480952454439  1.0000
  Cl  Cl5       1.0  0.25605193914526914  0.7439480331151503  0.2560519173391636  1.0000
  Cl  Cl6       1.0  0.7439480919261857  0.25605193780270763  0.7439480970575344  1.0000
