data_image0
_chemical_formula_structural       W2CO6
_chemical_formula_sum              "W2 C1 O6"
_cell_length_a       4.589683297770865
_cell_length_b       4.589683097312712
_cell_length_c       4.589683336380988
_cell_angle_alpha    60.00000011760902
_cell_angle_beta     60.000000271829066
_cell_angle_gamma    60.000000037480504

_space_group_name_H-M_alt    "P 1"
_space_group_IT_number       1

loop_
  _space_group_symop_operation_xyz
  'x, y, z'

loop_
  _atom_site_type_symbol
  _atom_site_label
  _atom_site_symmetry_multiplicity
  _atom_site_fract_x
  _atom_site_fract_y
  _atom_site_fract_z
  _atom_site_occupancy
  W   W1        1.0  0.24999982274598886  0.250000041336796  0.24999996392996393  1.0000
  W   W2        1.0  0.7499998963966733  0.7499998358152352  0.7500001399128472  1.0000
  C   C1        1.0  0.999999819019609  0.999999463636778  2.301226246449193e-07  1.0000
  O   O1        1.0  0.2359518420454095  0.23595169192802912  0.7640482772834334  1.0000
  O   O2        1.0  0.764048398181215  0.7640484333920659  0.23595164238292923  1.0000
  O   O3        1.0  0.7640483953130862  0.23595174426248403  0.23595165107912294  1.0000
  O   O4        1.0  0.23595182153391023  0.7640483757206659  0.7640484202098977  1.0000
  O   O5        1.0  0.23595172341139992  0.7640485179019952  0.23595149859979006  1.0000
  O   O6        1.0  0.7640483374739028  0.2359518208959936  0.7640482667339166  1.0000
