data_image0
_chemical_formula_structural       W2CoO6
_chemical_formula_sum              "W2 Co1 O6"
_cell_length_a       4.975512927154986
_cell_length_b       4.97551283580545
_cell_length_c       4.975512666250739
_cell_angle_alpha    60.00000016100671
_cell_angle_beta     60.000000121750524
_cell_angle_gamma    59.99999990201231

_space_group_name_H-M_alt    "P 1"
_space_group_IT_number       1

loop_
  _space_group_symop_operation_xyz
  'x, y, z'

loop_
  _atom_site_type_symbol
  _atom_site_label
  _atom_site_symmetry_multiplicity
  _atom_site_fract_x
  _atom_site_fract_y
  _atom_site_fract_z
  _atom_site_occupancy
  W   W1        1.0  0.2500025587929516  0.24999930015030972  0.2499970873415598  1.0000
  W   W2        1.0  0.7500016023440021  0.7499993921471647  0.7499984712802142  1.0000
  Co  Co1       1.0  5.40573737306703e-08  4.9230899851692135e-09  0.9999999845786695  1.0000
  O   O1        1.0  0.25907078110983683  0.259071745194858  0.7409296530595557  1.0000
  O   O2        1.0  0.7409277596756019  0.7409293126473282  0.25907191241387323  1.0000
  O   O3        1.0  0.7409283354584311  0.2590710601674963  0.2590719595197839  1.0000
  O   O4        1.0  0.25907074792068197  0.7409284395167137  0.740929157050466  1.0000
  O   O5        1.0  0.2590707749129759  0.7409288972440419  0.25907192812074126  1.0000
  O   O6        1.0  0.7409273387630424  0.25907184059729493  0.7409299325239477  1.0000
