data_image0
_chemical_formula_structural       W2CoSe6
_chemical_formula_sum              "W2 Co1 Se6"
_cell_length_a       5.824095033634579
_cell_length_b       5.824095409632489
_cell_length_c       5.82409539330916
_cell_angle_alpha    59.999999518900665
_cell_angle_beta     59.99999716219661
_cell_angle_gamma    59.999999641103365

_space_group_name_H-M_alt    "P 1"
_space_group_IT_number       1

loop_
  _space_group_symop_operation_xyz
  'x, y, z'

loop_
  _atom_site_type_symbol
  _atom_site_label
  _atom_site_symmetry_multiplicity
  _atom_site_fract_x
  _atom_site_fract_y
  _atom_site_fract_z
  _atom_site_occupancy
  W   W1        1.0  0.24999982797904383  0.2500000884619768  0.25000000714475823  1.0000
  W   W2        1.0  0.7499999087828224  0.7500000971544972  0.7500000957337157  1.0000
  Co  Co1       1.0  5.403261657376934e-08  0.9999999390161063  7.558984194493305e-08  1.0000
  Se  Se1       1.0  0.2633487405037544  0.26334833574026856  0.7366514225285719  1.0000
  Se  Se2       1.0  0.7366513061320956  0.7366516458955957  0.2633485003448555  1.0000
  Se  Se3       1.0  0.736651504753657  0.263348656587768  0.26334850264430004  1.0000
  Se  Se4       1.0  0.2633485611690281  0.7366512493439531  0.7366514587398109  1.0000
  Se  Se5       1.0  0.26334849064864907  0.736651341425417  0.2633486732198997  1.0000
  Se  Se6       1.0  0.7366515615742817  0.2633486591364829  0.7366512614350373  1.0000
