data_image0
_chemical_formula_structural       W2CoS6
_chemical_formula_sum              "W2 Co1 S6"
_cell_length_a       5.568134810427235
_cell_length_b       5.568135257983478
_cell_length_c       5.568134888145635
_cell_angle_alpha    59.99999991324648
_cell_angle_beta     59.99999982512128
_cell_angle_gamma    59.999999390973315

_space_group_name_H-M_alt    "P 1"
_space_group_IT_number       1

loop_
  _space_group_symop_operation_xyz
  'x, y, z'

loop_
  _atom_site_type_symbol
  _atom_site_label
  _atom_site_symmetry_multiplicity
  _atom_site_fract_x
  _atom_site_fract_y
  _atom_site_fract_z
  _atom_site_occupancy
  W   W1        1.0  0.24999995826650742  0.2500000202423307  0.25000000624088853  1.0000
  W   W2        1.0  0.7500000348784265  0.7500000035384266  0.7499998595214873  1.0000
  Co  Co1       1.0  4.754923418242557e-09  4.399118743742197e-09  5.289285097901522e-08  1.0000
  S   S1        1.0  0.2625724002953431  0.26257237803946687  0.7374275910392297  1.0000
  S   S2        1.0  0.737427611409269  0.7374276149474435  0.26257242092304445  1.0000
  S   S3        1.0  0.7374276011376166  0.26257243378766965  0.26257238226586427  1.0000
  S   S4        1.0  0.26257237589879273  0.7374276009908847  0.7374276440940237  1.0000
  S   S5        1.0  0.26257243018731513  0.737427552212418  0.2625724244459744  1.0000
  S   S6        1.0  0.7374275941072677  0.26257239678328714  0.7374276391355881  1.0000
