data_image0
_chemical_formula_structural       W2CrO6
_chemical_formula_sum              "W2 Cr1 O6"
_cell_length_a       5.089478091023463
_cell_length_b       5.089477849530995
_cell_length_c       5.08947806199259
_cell_angle_alpha    59.9999988609459
_cell_angle_beta     60.00000108320809
_cell_angle_gamma    59.99999995412002

_space_group_name_H-M_alt    "P 1"
_space_group_IT_number       1

loop_
  _space_group_symop_operation_xyz
  'x, y, z'

loop_
  _atom_site_type_symbol
  _atom_site_label
  _atom_site_symmetry_multiplicity
  _atom_site_fract_x
  _atom_site_fract_y
  _atom_site_fract_z
  _atom_site_occupancy
  W   W1        1.0  0.24999998733977577  0.2500004554908763  0.2500007609901499  1.0000
  W   W2        1.0  0.7499992562263612  0.7500007817112431  0.749999953482857  1.0000
  Cr  Cr1       1.0  1.0427843299943476e-08  0.9999999687164696  3.007622378455078e-08  1.0000
  O   O1        1.0  0.2507654141616306  0.2507646107631387  0.7492345118440956  1.0000
  O   O2        1.0  0.749235024999799  0.7492348841869875  0.25076515558611684  1.0000
  O   O3        1.0  0.7492346813289852  0.2507650336074279  0.25076500124020806  1.0000
  O   O4        1.0  0.2507652334840752  0.749234673108129  0.7492350170004345  1.0000
  O   O5        1.0  0.25076521389587764  0.7492347456190552  0.25076494722646514  1.0000
  O   O6        1.0  0.7492352368139605  0.2507648576202152  0.7492346249178868  1.0000
