data_image0
_chemical_formula_structural       W2CrTe6
_chemical_formula_sum              "W2 Cr1 Te6"
_cell_length_a       6.8895225138054315
_cell_length_b       6.889522579801015
_cell_length_c       6.889522690891868
_cell_angle_alpha    60.00000098658768
_cell_angle_beta     59.9999996204583
_cell_angle_gamma    60.00000113814695

_space_group_name_H-M_alt    "P 1"
_space_group_IT_number       1

loop_
  _space_group_symop_operation_xyz
  'x, y, z'

loop_
  _atom_site_type_symbol
  _atom_site_label
  _atom_site_symmetry_multiplicity
  _atom_site_fract_x
  _atom_site_fract_y
  _atom_site_fract_z
  _atom_site_occupancy
  W   W1        1.0  0.24999997301541355  0.24999989041606963  0.2500001438289671  1.0000
  W   W2        1.0  0.7500000091912168  0.7499999539012193  0.7500000244630489  1.0000
  Cr  Cr1       1.0  0.9999999509886314  2.133230203643651e-08  0.9999999790040287  1.0000
  Te  Te1       1.0  0.2565572470752582  0.25655724009840175  0.7434427369199081  1.0000
  Te  Te2       1.0  0.7434427570851441  0.7434428299857572  0.25655715365497694  1.0000
  Te  Te3       1.0  0.7434427002207236  0.2565573353659443  0.25655723332319014  1.0000
  Te  Te4       1.0  0.2565572579579118  0.7434428022705079  0.7434427233948387  1.0000
  Te  Te5       1.0  0.256557306069686  0.7434426258663468  0.2565572846549424  1.0000
  Te  Te6       1.0  0.7434427896650222  0.2565573002247695  0.7434427221210302  1.0000
