data_image0
_chemical_formula_structural       W2CrSe6
_chemical_formula_sum              "W2 Cr1 Se6"
_cell_length_a       6.005456588665797
_cell_length_b       6.0054570113304955
_cell_length_c       6.0054568068604475
_cell_angle_alpha    59.999999958422514
_cell_angle_beta     60.00000024477568
_cell_angle_gamma    59.9999972424685

_space_group_name_H-M_alt    "P 1"
_space_group_IT_number       1

loop_
  _space_group_symop_operation_xyz
  'x, y, z'

loop_
  _atom_site_type_symbol
  _atom_site_label
  _atom_site_symmetry_multiplicity
  _atom_site_fract_x
  _atom_site_fract_y
  _atom_site_fract_z
  _atom_site_occupancy
  W   W1        1.0  0.2499999970887608  0.2499999181448379  0.250000228835823  1.0000
  W   W2        1.0  0.7500000068381016  0.7500000134366228  0.7500002061991364  1.0000
  Cr  Cr1       1.0  3.386970911522425e-08  1.0604810456376559e-07  0.999999888412286  1.0000
  Se  Se1       1.0  0.26844940068469725  0.26844938032116583  0.731550568956671  1.0000
  Se  Se2       1.0  0.7315504460395694  0.7315507286869465  0.26844949462821577  1.0000
  Se  Se3       1.0  0.7315507391366958  0.26844940270799755  0.2684492431300487  1.0000
  Se  Se4       1.0  0.26844930172895176  0.7315506084095508  0.7315505825020745  1.0000
  Se  Se5       1.0  0.26844943523072406  0.7315505049058854  0.2684492066168845  1.0000
  Se  Se6       1.0  0.7315506089973133  0.26844936345459974  0.7315505987943547  1.0000
