data_image0
_chemical_formula_structural       W2CrS6
_chemical_formula_sum              "W2 Cr1 S6"
_cell_length_a       5.734576423872848
_cell_length_b       5.734576410466949
_cell_length_c       5.73457632101012
_cell_angle_alpha    60.00000094058174
_cell_angle_beta     60.00000028863632
_cell_angle_gamma    59.999999714375306

_space_group_name_H-M_alt    "P 1"
_space_group_IT_number       1

loop_
  _space_group_symop_operation_xyz
  'x, y, z'

loop_
  _atom_site_type_symbol
  _atom_site_label
  _atom_site_symmetry_multiplicity
  _atom_site_fract_x
  _atom_site_fract_y
  _atom_site_fract_z
  _atom_site_occupancy
  W   W1        1.0  0.25000004969116807  0.2499999759571313  0.25000000998368205  1.0000
  W   W2        1.0  0.7499999839393168  0.7499999641786324  0.7500000368188574  1.0000
  Cr  Cr1       1.0  0.9999999305403084  8.75645139480091e-08  0.9999999595590454  1.0000
  S   S1        1.0  0.2657838143570567  0.2657838283532017  0.7342161978913079  1.0000
  S   S2        1.0  0.7342161591906667  0.7342161651755584  0.26578384528088267  1.0000
  S   S3        1.0  0.7342163109085184  0.26578377163474376  0.265783746295157  1.0000
  S   S4        1.0  0.26578378807067926  0.7342162261654545  0.7342161570418336  1.0000
  S   S5        1.0  0.2657837900146361  0.7342161400785051  0.2657838146391394  1.0000
  S   S6        1.0  0.7342161949026367  0.2657838555859746  0.7342162043423369  1.0000
