data_image0
_chemical_formula_structural       W2CS6
_chemical_formula_sum              "W2 C1 S6"
_cell_length_a       5.526701486172178
_cell_length_b       5.526701170958345
_cell_length_c       5.526701619492843
_cell_angle_alpha    59.999999168055794
_cell_angle_beta     59.999997501069444
_cell_angle_gamma    60.00000061628353

_space_group_name_H-M_alt    "P 1"
_space_group_IT_number       1

loop_
  _space_group_symop_operation_xyz
  'x, y, z'

loop_
  _atom_site_type_symbol
  _atom_site_label
  _atom_site_symmetry_multiplicity
  _atom_site_fract_x
  _atom_site_fract_y
  _atom_site_fract_z
  _atom_site_occupancy
  W   W1        1.0  0.2499998983983487  0.24999982381122038  0.25000017903461785  1.0000
  W   W2        1.0  0.7499999357082557  0.7500001163043567  0.7500000998400994  1.0000
  C   C1        1.0  0.9999975669755344  5.673089213151731e-07  3.306787309155508e-06  1.0000
  S   S1        1.0  0.2545219674770877  0.2545217418331078  0.7454780190708039  1.0000
  S   S2        1.0  0.745479002911018  0.7454787257024994  0.2545209050372677  1.0000
  S   S3        1.0  0.7454791160546911  0.2545209329063687  0.25452074103820016  1.0000
  S   S4        1.0  0.25452233325751367  0.7454778659432099  0.7454776054612379  1.0000
  S   S5        1.0  0.25452160587831874  0.7454785815566275  0.2545211843805725  1.0000
  S   S6        1.0  0.7454785660377415  0.2545216488615498  0.7454780005878013  1.0000
