data_image0
_chemical_formula_structural       W2FeTe6
_chemical_formula_sum              "W2 Fe1 Te6"
_cell_length_a       6.8440289232507885
_cell_length_b       6.844029114571179
_cell_length_c       6.844028765777162
_cell_angle_alpha    60.00000185212435
_cell_angle_beta     60.00000104961454
_cell_angle_gamma    60.000002012373045

_space_group_name_H-M_alt    "P 1"
_space_group_IT_number       1

loop_
  _space_group_symop_operation_xyz
  'x, y, z'

loop_
  _atom_site_type_symbol
  _atom_site_label
  _atom_site_symmetry_multiplicity
  _atom_site_fract_x
  _atom_site_fract_y
  _atom_site_fract_z
  _atom_site_occupancy
  W   W1        1.0  0.250000002048872  0.24999998060892673  0.24999997404118832  1.0000
  W   W2        1.0  0.7499999670172338  0.7499999883540014  0.7499998599795374  1.0000
  Fe  Fe1       1.0  0.9999999894851952  0.9999999910524574  4.479823844498808e-08  1.0000
  Te  Te1       1.0  0.2508667505523099  0.25086665072386544  0.749133278924197  1.0000
  Te  Te2       1.0  0.7491332596870414  0.749133341502674  0.25086675373627687  1.0000
  Te  Te3       1.0  0.7491333484577848  0.25086668169423487  0.250866727190266  1.0000
  Te  Te4       1.0  0.25086672192299925  0.7491333123218133  0.7491332847326311  1.0000
  Te  Te5       1.0  0.2508667060010187  0.7491333405579269  0.25086671852659237  1.0000
  Te  Te6       1.0  0.7491332461407627  0.2508667196699359  0.7491333588603464  1.0000
