data_image0
_chemical_formula_structural       W2FeS6
_chemical_formula_sum              "W2 Fe1 S6"
_cell_length_a       5.638757716156977
_cell_length_b       5.638757893152338
_cell_length_c       5.638757747032542
_cell_angle_alpha    60.000001507188465
_cell_angle_beta     60.00000101225857
_cell_angle_gamma    60.00000131546774

_space_group_name_H-M_alt    "P 1"
_space_group_IT_number       1

loop_
  _space_group_symop_operation_xyz
  'x, y, z'

loop_
  _atom_site_type_symbol
  _atom_site_label
  _atom_site_symmetry_multiplicity
  _atom_site_fract_x
  _atom_site_fract_y
  _atom_site_fract_z
  _atom_site_occupancy
  W   W1        1.0  0.25000004937058506  0.25000001686802276  0.24999991121639037  1.0000
  W   W2        1.0  0.749999970699134  0.7500000115078576  0.7500000795445798  1.0000
  Fe  Fe1       1.0  0.999999970131337  0.9999999913119529  1.750491440520813e-08  1.0000
  S   S1        1.0  0.2647848657762298  0.2647849110416214  0.7352150909779555  1.0000
  S   S2        1.0  0.7352151362360155  0.7352150977861532  0.2647849274530055  1.0000
  S   S3        1.0  0.735215133062174  0.2647848706009934  0.26478486891302616  1.0000
  S   S4        1.0  0.26478488645038434  0.7352150795824633  0.7352151151132891  1.0000
  S   S5        1.0  0.2647848663675174  0.7352151781501449  0.2647848660616416  1.0000
  S   S6        1.0  0.7352150998598139  0.264784845881712  0.7352151342846912  1.0000
