data_image0
_chemical_formula_structural       W2FeO6
_chemical_formula_sum              "W2 Fe1 O6"
_cell_length_a       5.09844694186454
_cell_length_b       5.098447020054417
_cell_length_c       5.0984469506712085
_cell_angle_alpha    60.0000030043297
_cell_angle_beta     60.00000575199941
_cell_angle_gamma    60.00000268927168

_space_group_name_H-M_alt    "P 1"
_space_group_IT_number       1

loop_
  _space_group_symop_operation_xyz
  'x, y, z'

loop_
  _atom_site_type_symbol
  _atom_site_label
  _atom_site_symmetry_multiplicity
  _atom_site_fract_x
  _atom_site_fract_y
  _atom_site_fract_z
  _atom_site_occupancy
  W   W1        1.0  0.25000171814489164  0.2500003806273429  0.2499972236619937  1.0000
  W   W2        1.0  0.7500008957399174  0.750000315528004  0.7499946293230669  1.0000
  Fe  Fe1       1.0  0.999999992291034  0.9999999687715049  4.692807192540233e-08  1.0000
  O   O1        1.0  0.25100059006557274  0.2510016921993119  0.7489994453626143  1.0000
  O   O2        1.0  0.7489988587485501  0.7489984298322261  0.2510035506317136  1.0000
  O   O3        1.0  0.7489982290439985  0.2510002153672978  0.2510027886812412  1.0000
  O   O4        1.0  0.2510017834568205  0.7489984941753685  0.7489994921514668  1.0000
  O   O5        1.0  0.2510003458112768  0.7489989759305241  0.2510025221353719  1.0000
  O   O6        1.0  0.7489975512360555  0.2510015616802158  0.7490003633146591  1.0000
