data_image0
_chemical_formula_structural       W2GeS6
_chemical_formula_sum              "W2 Ge1 S6"
_cell_length_a       5.889858309746461
_cell_length_b       5.889858266664074
_cell_length_c       5.889858130772718
_cell_angle_alpha    60.00000165366195
_cell_angle_beta     60.000001022117985
_cell_angle_gamma    60.00000096295623

_space_group_name_H-M_alt    "P 1"
_space_group_IT_number       1

loop_
  _space_group_symop_operation_xyz
  'x, y, z'

loop_
  _atom_site_type_symbol
  _atom_site_label
  _atom_site_symmetry_multiplicity
  _atom_site_fract_x
  _atom_site_fract_y
  _atom_site_fract_z
  _atom_site_occupancy
  W   W1        1.0  0.250000070818398  0.2499999544183256  0.2500000051598314  1.0000
  W   W2        1.0  0.7499999483802319  0.7500000379256775  0.7500000296206184  1.0000
  Ge  Ge1       1.0  0.9999999965547156  0.9999999750470424  0.9999999938251156  1.0000
  S   S1        1.0  0.2649511616243827  0.26495114142622833  0.7350488501603971  1.0000
  S   S2        1.0  0.7350488455734632  0.7350488633942529  0.264951138540694  1.0000
  S   S3        1.0  0.7350488134922379  0.26495120191334576  0.2649511288137129  1.0000
  S   S4        1.0  0.2649511253840351  0.7350488902424855  0.7350487977476435  1.0000
  S   S5        1.0  0.26495117561265036  0.7350487628418889  0.2649511551121084  1.0000
  S   S6        1.0  0.7350488823812867  0.2649511484050026  0.7350488702582353  1.0000
