data_image0
_chemical_formula_structural       W2GeO6
_chemical_formula_sum              "W2 Ge1 O6"
_cell_length_a       5.021949850657372
_cell_length_b       5.021950030525171
_cell_length_c       5.021950118690592
_cell_angle_alpha    59.99999876631908
_cell_angle_beta     59.99999943737306
_cell_angle_gamma    59.99999940332173

_space_group_name_H-M_alt    "P 1"
_space_group_IT_number       1

loop_
  _space_group_symop_operation_xyz
  'x, y, z'

loop_
  _atom_site_type_symbol
  _atom_site_label
  _atom_site_symmetry_multiplicity
  _atom_site_fract_x
  _atom_site_fract_y
  _atom_site_fract_z
  _atom_site_occupancy
  W   W1        1.0  0.24999971945802887  0.24999966916459845  0.25000037655221946  1.0000
  W   W2        1.0  0.7500008375212726  0.7500002195691844  0.7499995625786222  1.0000
  Ge  Ge1       1.0  3.9251630537595775e-09  0.9999999951224329  1.043249374067252e-08  1.0000
  O   O1        1.0  0.2554139869788531  0.2554142063775947  0.744586030093414  1.0000
  O   O2        1.0  0.7445859097246048  0.7445858628261723  0.2554139856571674  1.0000
  O   O3        1.0  0.7445857727432075  0.25541404324798844  0.25541418772496693  1.0000
  O   O4        1.0  0.2554139649135518  0.7445860064455138  0.7445857341083287  1.0000
  O   O5        1.0  0.2554136790509448  0.7445860805757409  0.2554144758749206  1.0000
  O   O6        1.0  0.7445861231498259  0.2554139203420884  0.7445856491475893  1.0000
