data_image0
_chemical_formula_structural       W2IrS6
_chemical_formula_sum              "W2 Ir1 S6"
_cell_length_a       5.869244871591439
_cell_length_b       5.869244869629036
_cell_length_c       5.8692449109393
_cell_angle_alpha    59.99999983831225
_cell_angle_beta     60.00000052431595
_cell_angle_gamma    60.00000132942053

_space_group_name_H-M_alt    "P 1"
_space_group_IT_number       1

loop_
  _space_group_symop_operation_xyz
  'x, y, z'

loop_
  _atom_site_type_symbol
  _atom_site_label
  _atom_site_symmetry_multiplicity
  _atom_site_fract_x
  _atom_site_fract_y
  _atom_site_fract_z
  _atom_site_occupancy
  W   W1        1.0  0.2500000459100422  0.2500000121180323  0.25000000908161985  1.0000
  W   W2        1.0  0.7499999947494119  0.7499999341049984  0.7500000340015909  1.0000
  Ir  Ir1       1.0  0.9999999530795989  8.764208218082415e-08  0.9999999251176654  1.0000
  S   S1        1.0  0.2721014393801292  0.2721014228553209  0.7278986010711271  1.0000
  S   S2        1.0  0.7278985712708608  0.7278985838824807  0.27210145231588023  1.0000
  S   S3        1.0  0.7278985178726036  0.27210146356541687  0.27210147441178195  1.0000
  S   S4        1.0  0.27210147507201105  0.7278985431723848  0.7278984890082055  1.0000
  S   S5        1.0  0.2721014336218268  0.7278985273960779  0.2721014465171425  1.0000
  S   S6        1.0  0.7278985496257296  0.2721014376073985  0.7278985392109432  1.0000
