data_image0
_chemical_formula_structural       W2IrO6
_chemical_formula_sum              "W2 Ir1 O6"
_cell_length_a       5.273052133060074
_cell_length_b       5.273052809833437
_cell_length_c       5.273052595614135
_cell_angle_alpha    60.0000051828842
_cell_angle_beta     60.00000267041236
_cell_angle_gamma    60.00000319815601

_space_group_name_H-M_alt    "P 1"
_space_group_IT_number       1

loop_
  _space_group_symop_operation_xyz
  'x, y, z'

loop_
  _atom_site_type_symbol
  _atom_site_label
  _atom_site_symmetry_multiplicity
  _atom_site_fract_x
  _atom_site_fract_y
  _atom_site_fract_z
  _atom_site_occupancy
  W   W1        1.0  0.25000002182858816  0.24999967202969642  0.2500000669640738  1.0000
  W   W2        1.0  0.7500022534410044  0.7499977734721018  0.7499989013776148  1.0000
  Ir  Ir1       1.0  4.094230133626947e-08  3.48397259512518e-08  0.9999999677982933  1.0000
  O   O1        1.0  0.25214919646406453  0.2521515148053658  0.7478499722500823  1.0000
  O   O2        1.0  0.7478495653283473  0.7478496980323311  0.2521504887174558  1.0000
  O   O3        1.0  0.747849270559137  0.2521505250273562  0.25215044638128925  1.0000
  O   O4        1.0  0.2521502937380057  0.7478497912680123  0.7478496462858528  1.0000
  O   O5        1.0  0.25214948502192397  0.7478497754872997  0.25215121377509586  1.0000
  O   O6        1.0  0.7478498075064772  0.25215116560052275  0.7478493699252164  1.0000
