data_image0
_chemical_formula_structural       W2MnO6
_chemical_formula_sum              "W2 Mn1 O6"
_cell_length_a       5.014992491120729
_cell_length_b       5.0149922940008365
_cell_length_c       5.0149924365739995
_cell_angle_alpha    59.999997743014134
_cell_angle_beta     59.999996962903154
_cell_angle_gamma    59.999998769907194

_space_group_name_H-M_alt    "P 1"
_space_group_IT_number       1

loop_
  _space_group_symop_operation_xyz
  'x, y, z'

loop_
  _atom_site_type_symbol
  _atom_site_label
  _atom_site_symmetry_multiplicity
  _atom_site_fract_x
  _atom_site_fract_y
  _atom_site_fract_z
  _atom_site_occupancy
  W   W1        1.0  0.24999950428804885  0.2500002431985291  0.2500002971547199  1.0000
  W   W2        1.0  0.749999604299809  0.750000404787381  0.7500006118394963  1.0000
  Mn  Mn1       1.0  0.9999999986272647  3.1748171768800116e-08  0.9999999888003234  1.0000
  O   O1        1.0  0.25243217912597093  0.2524313413431832  0.7475680001500506  1.0000
  O   O2        1.0  0.7475682702539977  0.7475682613952431  0.2524316583782409  1.0000
  O   O3        1.0  0.7475685369300245  0.2524319778594073  0.25243139208074356  1.0000
  O   O4        1.0  0.252431526763525  0.7475680082992426  0.7475684231142862  1.0000
  O   O5        1.0  0.2524319365791519  0.7475681973803067  0.2524315583760434  1.0000
  O   O6        1.0  0.7475685214042002  0.2524315176978045  0.7475679958122516  1.0000
