data_image0
_chemical_formula_structural       W2MnTe6
_chemical_formula_sum              "W2 Mn1 Te6"
_cell_length_a       6.838218206123833
_cell_length_b       6.838218245006164
_cell_length_c       6.838218223692685
_cell_angle_alpha    59.99999939599678
_cell_angle_beta     59.999998196574154
_cell_angle_gamma    59.999999794621594

_space_group_name_H-M_alt    "P 1"
_space_group_IT_number       1

loop_
  _space_group_symop_operation_xyz
  'x, y, z'

loop_
  _atom_site_type_symbol
  _atom_site_label
  _atom_site_symmetry_multiplicity
  _atom_site_fract_x
  _atom_site_fract_y
  _atom_site_fract_z
  _atom_site_occupancy
  W   W1        1.0  0.25000003188659026  0.249999933762594  0.24999994505365927  1.0000
  W   W2        1.0  0.7499999940189868  0.7499998478545414  0.7500000498812543  1.0000
  Mn  Mn1       1.0  0.9999999656310177  1.7910290257237269e-09  7.185900829365876e-08  1.0000
  Te  Te1       1.0  0.2544496492897524  0.2544497290154688  0.745550327578594  1.0000
  Te  Te2       1.0  0.7455503421238232  0.7455502675251738  0.2544496868182591  1.0000
  Te  Te3       1.0  0.7455502906774366  0.2544497883899265  0.2544497199980415  1.0000
  Te  Te4       1.0  0.2544498067929842  0.7455502547174763  0.7455502034633147  1.0000
  Te  Te5       1.0  0.25444970501365033  0.7455503880012891  0.254449746025183  1.0000
  Te  Te6       1.0  0.7455502223325957  0.25444978047815897  0.7455502466080555  1.0000
