data_image0
_chemical_formula_structural       W2MnS6
_chemical_formula_sum              "W2 Mn1 S6"
_cell_length_a       5.69974865654271
_cell_length_b       5.6997486511544295
_cell_length_c       5.699748525755838
_cell_angle_alpha    60.00000130296908
_cell_angle_beta     60.00000047372003
_cell_angle_gamma    60.00000047323288

_space_group_name_H-M_alt    "P 1"
_space_group_IT_number       1

loop_
  _space_group_symop_operation_xyz
  'x, y, z'

loop_
  _atom_site_type_symbol
  _atom_site_label
  _atom_site_symmetry_multiplicity
  _atom_site_fract_x
  _atom_site_fract_y
  _atom_site_fract_z
  _atom_site_occupancy
  W   W1        1.0  0.2500000048776943  0.24999998017764702  0.2499999601445531  1.0000
  W   W2        1.0  0.7500000197065143  0.7500000286325108  0.750000118070225  1.0000
  Mn  Mn1       1.0  7.755933145776721e-09  0.9999999828098403  0.9999999696278459  1.0000
  S   S1        1.0  0.2660224302461498  0.26602242019587674  0.7339775901420708  1.0000
  S   S2        1.0  0.7339775191136437  0.7339776380359891  0.2660224114964296  1.0000
  S   S3        1.0  0.7339776547991529  0.2660223849049123  0.26602235426507825  1.0000
  S   S4        1.0  0.2660223707681781  0.7339775723347661  0.733977635203259  1.0000
  S   S5        1.0  0.2660223773295891  0.7339776053080043  0.2660224226853383  1.0000
  S   S6        1.0  0.7339775968534074  0.2660223906095328  0.7339775398014333  1.0000
