data_image0
_chemical_formula_structural       W2MoS6
_chemical_formula_sum              "W2 Mo1 S6"
_cell_length_a       5.7978957846272134
_cell_length_b       5.797895937070165
_cell_length_c       5.797895967089523
_cell_angle_alpha    59.99999755246588
_cell_angle_beta     59.99999816760475
_cell_angle_gamma    59.99999810535918

_space_group_name_H-M_alt    "P 1"
_space_group_IT_number       1

loop_
  _space_group_symop_operation_xyz
  'x, y, z'

loop_
  _atom_site_type_symbol
  _atom_site_label
  _atom_site_symmetry_multiplicity
  _atom_site_fract_x
  _atom_site_fract_y
  _atom_site_fract_z
  _atom_site_occupancy
  W   W1        1.0  0.2500000566609436  0.2499999583349051  0.2499999722966949  1.0000
  W   W2        1.0  0.7499999867741286  0.7500000482211409  0.7500000684911282  1.0000
  Mo  Mo1       1.0  0.9999999791591203  0.9999999788760465  0.999999981312854  1.0000
  S   S1        1.0  0.2741035861606442  0.27410360614514634  0.7258963962696382  1.0000
  S   S2        1.0  0.7258964135803553  0.7258963940737152  0.2741036057175601  1.0000
  S   S3        1.0  0.7258964698916953  0.2741035586145031  0.2741035783201576  1.0000
  S   S4        1.0  0.2741036090709432  0.7258963951316579  0.7258963934944631  1.0000
  S   S5        1.0  0.27410357230212135  0.7258964624734835  0.2741035545925111  1.0000
  S   S6        1.0  0.7258963281805735  0.27410359055526523  0.7258964688941321  1.0000
