data_image0
_chemical_formula_structural       W2MoO6
_chemical_formula_sum              "W2 Mo1 O6"
_cell_length_a       5.304784457822786
_cell_length_b       5.304784221599909
_cell_length_c       5.304784517023981
_cell_angle_alpha    59.99999881495359
_cell_angle_beta     60.0000011774117
_cell_angle_gamma    59.999999928870146

_space_group_name_H-M_alt    "P 1"
_space_group_IT_number       1

loop_
  _space_group_symop_operation_xyz
  'x, y, z'

loop_
  _atom_site_type_symbol
  _atom_site_label
  _atom_site_symmetry_multiplicity
  _atom_site_fract_x
  _atom_site_fract_y
  _atom_site_fract_z
  _atom_site_occupancy
  W   W1        1.0  0.25000133311353406  0.24999914332982545  0.24999970212945602  1.0000
  W   W2        1.0  0.750000741434051  0.7500000989106131  0.7499990860709022  1.0000
  Mo  Mo1       1.0  2.5241612669941397e-08  0.9999999699861808  0.9999999910755591  1.0000
  O   O1        1.0  0.2543929664783297  0.25439418551562853  0.7456066964837834  1.0000
  O   O2        1.0  0.7456062647276587  0.7456064558305151  0.25439369605694573  1.0000
  O   O3        1.0  0.7456057799650531  0.2543931705633824  0.25439417260026276  1.0000
  O   O4        1.0  0.25439369126085687  0.7456069074464597  0.7456060158910588  1.0000
  O   O5        1.0  0.25439329980483577  0.7456065765057115  0.25439382893830953  1.0000
  O   O6        1.0  0.7456059150968406  0.2543934737990641  0.7456068540796216  1.0000
