data_image0
_chemical_formula_structural       W2MoSe6
_chemical_formula_sum              "W2 Mo1 Se6"
_cell_length_a       6.121156665681362
_cell_length_b       6.121156287825793
_cell_length_c       6.121156768790312
_cell_angle_alpha    60.00000108227655
_cell_angle_beta     60.00000093367873
_cell_angle_gamma    60.00000175324743

_space_group_name_H-M_alt    "P 1"
_space_group_IT_number       1

loop_
  _space_group_symop_operation_xyz
  'x, y, z'

loop_
  _atom_site_type_symbol
  _atom_site_label
  _atom_site_symmetry_multiplicity
  _atom_site_fract_x
  _atom_site_fract_y
  _atom_site_fract_z
  _atom_site_occupancy
  W   W1        1.0  0.2499995346906475  0.25000022820136114  0.24999998057750733  1.0000
  W   W2        1.0  0.7500001721557742  0.74999947209567  0.7500002785534107  1.0000
  Mo  Mo1       1.0  1.343731272980374e-07  1.0004197448428192e-08  0.999999900038811  1.0000
  Se  Se1       1.0  0.27560733376208907  0.27560741729105576  0.7243926044047374  1.0000
  Se  Se2       1.0  0.7243928480538497  0.7243926011393943  0.27560719282760104  1.0000
  Se  Se3       1.0  0.7243928825432514  0.27560725969257177  0.27560718356077785  1.0000
  Se  Se4       1.0  0.2756071195864775  0.7243928167622095  0.724392749651694  1.0000
  Se  Se5       1.0  0.27560723144889343  0.724392766546562  0.2756073774682498  1.0000
  Se  Se6       1.0  0.7243927400764703  0.2756074639728345  0.7243927325311095  1.0000
