data_image0
_chemical_formula_structural       W2NiTe6
_chemical_formula_sum              "W2 Ni1 Te6"
_cell_length_a       6.840774790202973
_cell_length_b       6.840774758388175
_cell_length_c       6.840774579610654
_cell_angle_alpha    59.99999831502263
_cell_angle_beta     59.99999815480752
_cell_angle_gamma    59.99999927621604

_space_group_name_H-M_alt    "P 1"
_space_group_IT_number       1

loop_
  _space_group_symop_operation_xyz
  'x, y, z'

loop_
  _atom_site_type_symbol
  _atom_site_label
  _atom_site_symmetry_multiplicity
  _atom_site_fract_x
  _atom_site_fract_y
  _atom_site_fract_z
  _atom_site_occupancy
  W   W1        1.0  0.2500000744958848  0.25000012868626315  0.24999996422491466  1.0000
  W   W2        1.0  0.7499999856774846  0.7500000512614884  0.7499999611668993  1.0000
  Ni  Ni1       1.0  1.191816409737481e-08  0.9999999946289196  3.327202704906996e-08  1.0000
  Te  Te1       1.0  0.2564242152195606  0.25642421392814907  0.7435757589129537  1.0000
  Te  Te2       1.0  0.7435757404403647  0.7435757225306536  0.2564243258618361  1.0000
  Te  Te3       1.0  0.7435757457220787  0.25642417456156225  0.2564242833266804  1.0000
  Te  Te4       1.0  0.25642428282762736  0.7435757457840024  0.7435757306669768  1.0000
  Te  Te5       1.0  0.2564242214008604  0.743575693719943  0.25642420081681816  1.0000
  Te  Te6       1.0  0.7435757339518907  0.25642425885210135  0.743575744490889  1.0000
