data_image0
_chemical_formula_structural       W2NiO6
_chemical_formula_sum              "W2 Ni1 O6"
_cell_length_a       5.005068803421103
_cell_length_b       5.005069400959563
_cell_length_c       5.0050686600929355
_cell_angle_alpha    60.00000126525952
_cell_angle_beta     60.00000193225164
_cell_angle_gamma    60.000000804521356

_space_group_name_H-M_alt    "P 1"
_space_group_IT_number       1

loop_
  _space_group_symop_operation_xyz
  'x, y, z'

loop_
  _atom_site_type_symbol
  _atom_site_label
  _atom_site_symmetry_multiplicity
  _atom_site_fract_x
  _atom_site_fract_y
  _atom_site_fract_z
  _atom_site_occupancy
  W   W1        1.0  0.2500006378698163  0.25000247421045957  0.250003038288075  1.0000
  W   W2        1.0  0.7500031549101671  0.749995960842956  0.7500038396364865  1.0000
  Ni  Ni1       1.0  0.9999999198126018  0.9999999706359087  0.9999997990349975  1.0000
  O   O1        1.0  0.2513976183199187  0.2514023438247464  0.7485979419814247  1.0000
  O   O2        1.0  0.7486010401095722  0.7485985308970129  0.2513986271003528  1.0000
  O   O3        1.0  0.7485981843089475  0.25140088703738883  0.2513989542905866  1.0000
  O   O4        1.0  0.2513996289077734  0.748600716892944  0.7485987057461254  1.0000
  O   O5        1.0  0.2514004098200725  0.748598982258654  0.25139907827258284  1.0000
  O   O6        1.0  0.7485992196555978  0.2514001697688469  0.7485999625086326  1.0000
