data_image0
_chemical_formula_structural       W2NiS6
_chemical_formula_sum              "W2 Ni1 S6"
_cell_length_a       5.691758625174228
_cell_length_b       5.691758714327386
_cell_length_c       5.691758507831555
_cell_angle_alpha    59.99999956498559
_cell_angle_beta     59.999999604676375
_cell_angle_gamma    59.999999986321285

_space_group_name_H-M_alt    "P 1"
_space_group_IT_number       1

loop_
  _space_group_symop_operation_xyz
  'x, y, z'

loop_
  _atom_site_type_symbol
  _atom_site_label
  _atom_site_symmetry_multiplicity
  _atom_site_fract_x
  _atom_site_fract_y
  _atom_site_fract_z
  _atom_site_occupancy
  W   W1        1.0  0.2500001715539509  0.24999997997297033  0.249999930722227  1.0000
  W   W2        1.0  0.7499999165961659  0.7500000604189473  0.7499999993248371  1.0000
  Ni  Ni1       1.0  0.999999966577034  1.5062504997012454e-08  0.9999999740417054  1.0000
  S   S1        1.0  0.26038735590379736  0.26038745240228695  0.7396125996748127  1.0000
  S   S2        1.0  0.7396126443361676  0.73961251698068  0.2603874713242235  1.0000
  S   S3        1.0  0.7396125505398434  0.2603873849172683  0.26038745409479375  1.0000
  S   S4        1.0  0.2603874285725603  0.7396125930728448  0.7396125686997357  1.0000
  S   S5        1.0  0.2603874210743599  0.7396126129157929  0.2603873992940792  1.0000
  S   S6        1.0  0.7396125353528954  0.2603873844403974  0.7396126234030593  1.0000
