data_image0
_chemical_formula_structural       W2OsS6
_chemical_formula_sum              "W2 Os1 S6"
_cell_length_a       5.831735562196792
_cell_length_b       5.831735745237218
_cell_length_c       5.831735527016795
_cell_angle_alpha    60.00000144491628
_cell_angle_beta     60.000000604229214
_cell_angle_gamma    60.00000084261726

_space_group_name_H-M_alt    "P 1"
_space_group_IT_number       1

loop_
  _space_group_symop_operation_xyz
  'x, y, z'

loop_
  _atom_site_type_symbol
  _atom_site_label
  _atom_site_symmetry_multiplicity
  _atom_site_fract_x
  _atom_site_fract_y
  _atom_site_fract_z
  _atom_site_occupancy
  W   W1        1.0  0.24999999974011897  0.25000006929932905  0.24999993516892996  1.0000
  W   W2        1.0  0.7499999577839985  0.7499999579815928  0.7499999700454751  1.0000
  Os  Os1       1.0  8.280442438956348e-09  0.9999999810987601  2.0743197375237517e-08  1.0000
  S   S1        1.0  0.27389017683951183  0.27389011536038915  0.7261098591074168  1.0000
  S   S2        1.0  0.7261098556065944  0.726109859417088  0.27389013949779595  1.0000
  S   S3        1.0  0.7261098547993833  0.27389014831606473  0.2738901679368059  1.0000
  S   S4        1.0  0.2738901945473272  0.7261098054600349  0.7261098790171893  1.0000
  S   S5        1.0  0.2738901322040853  0.7261099037963883  0.2738901508190182  1.0000
  S   S6        1.0  0.7261098595398549  0.27389016338715116  0.7261098425113113  1.0000
