data_image0
_chemical_formula_structural       W2OsSe6
_chemical_formula_sum              "W2 Os1 Se6"
_cell_length_a       6.228794710403527
_cell_length_b       6.2287943685866765
_cell_length_c       6.228794153102096
_cell_angle_alpha    59.999994997763636
_cell_angle_beta     59.99999846877508
_cell_angle_gamma    59.99999915586214

_space_group_name_H-M_alt    "P 1"
_space_group_IT_number       1

loop_
  _space_group_symop_operation_xyz
  'x, y, z'

loop_
  _atom_site_type_symbol
  _atom_site_label
  _atom_site_symmetry_multiplicity
  _atom_site_fract_x
  _atom_site_fract_y
  _atom_site_fract_z
  _atom_site_occupancy
  W   W1        1.0  0.250000064509759  0.2499999636470149  0.2500000899964342  1.0000
  W   W2        1.0  0.750000272867201  0.7499999754903942  0.7499996550371959  1.0000
  Os  Os1       1.0  1.4811192621510178e-08  3.3426479118127845e-08  0.9999999052414862  1.0000
  Se  Se1       1.0  0.2741565810876516  0.27415663211711294  0.7258433949409495  1.0000
  Se  Se2       1.0  0.7258433026646665  0.725843472186383  0.27415668537018023  1.0000
  Se  Se3       1.0  0.7258434208535699  0.2741564696987616  0.2741566761662442  1.0000
  Se  Se4       1.0  0.2741564675638708  0.7258434871349927  0.7258434659145186  1.0000
  Se  Se5       1.0  0.2741565543364237  0.7258433103843757  0.27415663847756166  1.0000
  Se  Se6       1.0  0.7258433060296609  0.27415669167343415  0.7258434532752235  1.0000
