data_image0
_chemical_formula_structural       W2OsO6
_chemical_formula_sum              "W2 Os1 O6"
_cell_length_a       5.35463469375872
_cell_length_b       5.3546345683155385
_cell_length_c       5.354634486690727
_cell_angle_alpha    60.00000040102864
_cell_angle_beta     60.00000225711893
_cell_angle_gamma    60.000000623408724

_space_group_name_H-M_alt    "P 1"
_space_group_IT_number       1

loop_
  _space_group_symop_operation_xyz
  'x, y, z'

loop_
  _atom_site_type_symbol
  _atom_site_label
  _atom_site_symmetry_multiplicity
  _atom_site_fract_x
  _atom_site_fract_y
  _atom_site_fract_z
  _atom_site_occupancy
  W   W1        1.0  0.250001322442312  0.2499993138222712  0.2500012516300604  1.0000
  W   W2        1.0  0.7500003798408044  0.7499993298344506  0.7500021353095537  1.0000
  Os  Os1       1.0  0.9999999204280594  6.40433185621654e-08  0.9999997892620012  1.0000
  O   O1        1.0  0.246189340603145  0.24619093887622315  0.7538091733830529  1.0000
  O   O2        1.0  0.7538099917060437  0.753809742730378  0.24618919900954422  1.0000
  O   O3        1.0  0.753809416592343  0.24619012605736415  0.2461899711745603  1.0000
  O   O4        1.0  0.24618990181373138  0.7538109077874829  0.7538087157436165  1.0000
  O   O5        1.0  0.24619071794428463  0.7538096476890375  0.2461892399207354  1.0000
  O   O6        1.0  0.7538090381584598  0.2461899566174637  0.7538104210088062  1.0000
