data_image0
_chemical_formula_structural       W2PdS6
_chemical_formula_sum              "W2 Pd1 S6"
_cell_length_a       5.944043200166862
_cell_length_b       5.944043184063871
_cell_length_c       5.944043170571222
_cell_angle_alpha    59.99999985645442
_cell_angle_beta     60.00000037496931
_cell_angle_gamma    60.000000095621104

_space_group_name_H-M_alt    "P 1"
_space_group_IT_number       1

loop_
  _space_group_symop_operation_xyz
  'x, y, z'

loop_
  _atom_site_type_symbol
  _atom_site_label
  _atom_site_symmetry_multiplicity
  _atom_site_fract_x
  _atom_site_fract_y
  _atom_site_fract_z
  _atom_site_occupancy
  W   W1        1.0  0.2500000168725152  0.2500000251828908  0.2499999679731135  1.0000
  W   W2        1.0  0.7499999855112501  0.7500000260976906  0.750000015033389  1.0000
  Pd  Pd1       1.0  9.83092965308836e-09  0.9999999938186273  2.5092926484021617e-08  1.0000
  S   S1        1.0  0.2698940396340344  0.2698939906718658  0.7301059864162321  1.0000
  S   S2        1.0  0.7301059794892886  0.7301059637672103  0.26989399794704333  1.0000
  S   S3        1.0  0.7301059672844329  0.2698940375361109  0.26989401970963406  1.0000
  S   S4        1.0  0.2698940444017187  0.7301059333866255  0.7301059786363191  1.0000
  S   S5        1.0  0.26989397204757964  0.7301059843438947  0.2698940693501422  1.0000
  S   S6        1.0  0.7301059862451693  0.269894036029823  0.7301059444258737  1.0000
