data_image0
_chemical_formula_structural       W2PdSe6
_chemical_formula_sum              "W2 Pd1 Se6"
_cell_length_a       6.257347324406702
_cell_length_b       6.257347398638059
_cell_length_c       6.257347537637492
_cell_angle_alpha    60.00000085521329
_cell_angle_beta     60.000000113884475
_cell_angle_gamma    60.00000068868049

_space_group_name_H-M_alt    "P 1"
_space_group_IT_number       1

loop_
  _space_group_symop_operation_xyz
  'x, y, z'

loop_
  _atom_site_type_symbol
  _atom_site_label
  _atom_site_symmetry_multiplicity
  _atom_site_fract_x
  _atom_site_fract_y
  _atom_site_fract_z
  _atom_site_occupancy
  W   W1        1.0  0.2500001187390765  0.24999994348283766  0.24999987853970163  1.0000
  W   W2        1.0  0.749999988560435  0.7500000144338534  0.750000037490351  1.0000
  Pd  Pd1       1.0  0.9999999588425699  2.9359361597105044e-08  0.9999999627497608  1.0000
  Se  Se1       1.0  0.27493779441733446  0.2749378746170997  0.7250622356679292  1.0000
  Se  Se2       1.0  0.7250622317410337  0.7250621772495508  0.2749377075182619  1.0000
  Se  Se3       1.0  0.7250621420081269  0.2749377446260722  0.2749378916142171  1.0000
  Se  Se4       1.0  0.27493779639535476  0.725062199589584  0.7250621892279433  1.0000
  Se  Se5       1.0  0.2749378944848939  0.7250621818433713  0.27493781073905466  1.0000
  Se  Se6       1.0  0.7250620975073108  0.2749378230483011  0.725062289680557  1.0000
