data_image0
_chemical_formula_structural       W2PdO6
_chemical_formula_sum              "W2 Pd1 O6"
_cell_length_a       5.256570021586025
_cell_length_b       5.256570493194167
_cell_length_c       5.256569628173006
_cell_angle_alpha    60.00000165157173
_cell_angle_beta     59.99999816370202
_cell_angle_gamma    60.00000339126226

_space_group_name_H-M_alt    "P 1"
_space_group_IT_number       1

loop_
  _space_group_symop_operation_xyz
  'x, y, z'

loop_
  _atom_site_type_symbol
  _atom_site_label
  _atom_site_symmetry_multiplicity
  _atom_site_fract_x
  _atom_site_fract_y
  _atom_site_fract_z
  _atom_site_occupancy
  W   W1        1.0  0.2500011810494339  0.2500062210540873  0.24999800831884236  1.0000
  W   W2        1.0  0.7500056220539043  0.750000182147083  0.75000000973751  1.0000
  Pd  Pd1       1.0  0.9999999739102398  0.9999997553572089  1.9434010526375628e-07  1.0000
  O   O1        1.0  0.2580556637878877  0.25805595979724205  0.7419430998068788  1.0000
  O   O2        1.0  0.7419438911445576  0.7419433301236672  0.25805502972641203  1.0000
  O   O3        1.0  0.7419419512444778  0.25805758617962893  0.25805453968550485  1.0000
  O   O4        1.0  0.25805387878052227  0.7419405550850525  0.7419469987466442  1.0000
  O   O5        1.0  0.25805335591597306  0.7419418704331591  0.25805892861816554  1.0000
  O   O6        1.0  0.7419444865205047  0.2580544907640031  0.7419431899135619  1.0000
