data_image0
_chemical_formula_structural       W2PO6
_chemical_formula_sum              "W2 P1 O6"
_cell_length_a       4.887361573006431
_cell_length_b       4.887361578449245
_cell_length_c       4.887361459686889
_cell_angle_alpha    60.00000036846017
_cell_angle_beta     59.99999930790575
_cell_angle_gamma    59.99999905812075

_space_group_name_H-M_alt    "P 1"
_space_group_IT_number       1

loop_
  _space_group_symop_operation_xyz
  'x, y, z'

loop_
  _atom_site_type_symbol
  _atom_site_label
  _atom_site_symmetry_multiplicity
  _atom_site_fract_x
  _atom_site_fract_y
  _atom_site_fract_z
  _atom_site_occupancy
  W   W1        1.0  0.24999977294998482  0.2500002189136007  0.25000003735058113  1.0000
  W   W2        1.0  0.7499999594657475  0.7500000603264014  0.7499998771572868  1.0000
  P   P1        1.0  1.29350764746472e-08  0.9999999824584  3.0948574899190726e-08  1.0000
  O   O1        1.0  0.24407245607583083  0.2440724415821647  0.7559275375101167  1.0000
  O   O2        1.0  0.7559276973951962  0.7559274392129229  0.24407245162849756  1.0000
  O   O3        1.0  0.7559275709468433  0.24407234775439995  0.24407251724673149  1.0000
  O   O4        1.0  0.24407248925983577  0.7559275505822886  0.7559275752282588  1.0000
  O   O5        1.0  0.24407245507346068  0.7559275126972814  0.24407245370409453  1.0000
  O   O6        1.0  0.7559275977095288  0.2440724858771202  0.7559275166584131  1.0000
