data_image0
_chemical_formula_structural       W2PS6
_chemical_formula_sum              "W2 P1 S6"
_cell_length_a       5.768487370445926
_cell_length_b       5.76848732162275
_cell_length_c       5.768487280176951
_cell_angle_alpha    60.00000069422969
_cell_angle_beta     60.00000046602839
_cell_angle_gamma    60.00000154427036

_space_group_name_H-M_alt    "P 1"
_space_group_IT_number       1

loop_
  _space_group_symop_operation_xyz
  'x, y, z'

loop_
  _atom_site_type_symbol
  _atom_site_label
  _atom_site_symmetry_multiplicity
  _atom_site_fract_x
  _atom_site_fract_y
  _atom_site_fract_z
  _atom_site_occupancy
  W   W1        1.0  0.25000014107636387  0.24999999633084505  0.24999998058571327  1.0000
  W   W2        1.0  0.7499999421665452  0.7499998828342934  0.750000134821243  1.0000
  P   P1        1.0  0.9999999589938171  5.0955951700652675e-08  0.9999999568868675  1.0000
  S   S1        1.0  0.25922803671012923  0.2592280032468439  0.7407720015868258  1.0000
  S   S2        1.0  0.7407719266296345  0.7407719353669037  0.259228055636005  1.0000
  S   S3        1.0  0.7407719863317422  0.2592280916324914  0.2592279181536536  1.0000
  S   S4        1.0  0.25922799552663545  0.7407719956027841  0.7407719636205998  1.0000
  S   S5        1.0  0.2592280114596985  0.7407720206176912  0.25922798455184254  1.0000
  S   S6        1.0  0.7407719981004114  0.2592280135384679  0.7407719931218261  1.0000
