data_image0
_chemical_formula_structural       W2PSe6
_chemical_formula_sum              "W2 P1 Se6"
_cell_length_a       5.989887191160984
_cell_length_b       5.989882396924833
_cell_length_c       5.989886867481531
_cell_angle_alpha    60.00000121268601
_cell_angle_beta     59.999965146829005
_cell_angle_gamma    59.9999928878809

_space_group_name_H-M_alt    "P 1"
_space_group_IT_number       1

loop_
  _space_group_symop_operation_xyz
  'x, y, z'

loop_
  _atom_site_type_symbol
  _atom_site_label
  _atom_site_symmetry_multiplicity
  _atom_site_fract_x
  _atom_site_fract_y
  _atom_site_fract_z
  _atom_site_occupancy
  W   W1        1.0  0.2500005529391049  0.24999641337327816  0.250002384092312  1.0000
  W   W2        1.0  0.749999861061593  0.7500031174252156  0.7499988770707797  1.0000
  P   P1        1.0  0.9999994186337691  1.3392714600980323e-06  0.9999996544374209  1.0000
  Se  Se1       1.0  0.2672338574666766  0.26723538908545863  0.7327642168704595  1.0000
  Se  Se2       1.0  0.7327661132398127  0.7327647776097507  0.26723321336349476  1.0000
  Se  Se3       1.0  0.7327665164608914  0.2672330766485734  0.2672366754512245  1.0000
  Se  Se4       1.0  0.2672350192339658  0.7327655238163819  0.732764418243398  1.0000
  Se  Se5       1.0  0.2672350778559194  0.7327651406896138  0.26723281141695293  1.0000
  Se  Se6       1.0  0.7327643830913658  0.26723469885632994  0.7327675715428841  1.0000
