data_image0
_chemical_formula_structural       W2PtSe6
_chemical_formula_sum              "W2 Pt1 Se6"
_cell_length_a       6.320869491418498
_cell_length_b       6.320869730718221
_cell_length_c       6.32086940182431
_cell_angle_alpha    60.00000176482264
_cell_angle_beta     60.000001423074174
_cell_angle_gamma    60.0000056839808

_space_group_name_H-M_alt    "P 1"
_space_group_IT_number       1

loop_
  _space_group_symop_operation_xyz
  'x, y, z'

loop_
  _atom_site_type_symbol
  _atom_site_label
  _atom_site_symmetry_multiplicity
  _atom_site_fract_x
  _atom_site_fract_y
  _atom_site_fract_z
  _atom_site_occupancy
  W   W1        1.0  0.2499995377557396  0.25000022667460353  0.25000015433102535  1.0000
  W   W2        1.0  0.7499998146697274  0.7500001064881274  0.7499999228249704  1.0000
  Pt  Pt1       1.0  1.4544485686678665e-07  0.9999999089318327  0.9999997386666508  1.0000
  Se  Se1       1.0  0.2676633636182907  0.26766363658980824  0.7323364256867767  1.0000
  Se  Se2       1.0  0.7323367252192878  0.732336334237878  0.26766355619022  1.0000
  Se  Se3       1.0  0.7323365163357867  0.26766339647906034  0.2676636552688319  1.0000
  Se  Se4       1.0  0.26766354375416923  0.7323364852180702  0.7323366165281374  1.0000
  Se  Se5       1.0  0.26766363689783684  0.7323365157282423  0.2676634815394326  1.0000
  Se  Se6       1.0  0.7323367106466  0.267663364031281  0.7323364275926443  1.0000
