data_image0
_chemical_formula_structural       W2PtS6
_chemical_formula_sum              "W2 Pt1 S6"
_cell_length_a       5.933328662355402
_cell_length_b       5.933328731565276
_cell_length_c       5.93332872948436
_cell_angle_alpha    59.99999856090684
_cell_angle_beta     59.99999923898057
_cell_angle_gamma    59.999999454338905

_space_group_name_H-M_alt    "P 1"
_space_group_IT_number       1

loop_
  _space_group_symop_operation_xyz
  'x, y, z'

loop_
  _atom_site_type_symbol
  _atom_site_label
  _atom_site_symmetry_multiplicity
  _atom_site_fract_x
  _atom_site_fract_y
  _atom_site_fract_z
  _atom_site_occupancy
  W   W1        1.0  0.25000000960076024  0.24999999707135348  0.25000006655042145  1.0000
  W   W2        1.0  0.7500000691987182  0.7500000159842053  0.7499998805508966  1.0000
  Pt  Pt1       1.0  3.322244972172673e-09  0.9999999958716431  8.830028819757367e-09  1.0000
  S   S1        1.0  0.26761235867285976  0.2676123645542439  0.7323876718358212  1.0000
  S   S2        1.0  0.7323875963806635  0.7323876402446005  0.2676123749747233  1.0000
  S   S3        1.0  0.7323875865854022  0.2676123335132317  0.26761241194980423  1.0000
  S   S4        1.0  0.2676123544910816  0.7323876898632188  0.7323875988525655  1.0000
  S   S5        1.0  0.26761237428891294  0.732387618388618  0.2676123803502153  1.0000
  S   S6        1.0  0.7323876050220326  0.26761240705201056  0.7323876254713854  1.0000
