data_image0
_chemical_formula_structural       W2PtO6
_chemical_formula_sum              "W2 Pt1 O6"
_cell_length_a       5.268774158549091
_cell_length_b       5.268774026637908
_cell_length_c       5.268773366241981
_cell_angle_alpha    59.99999367292972
_cell_angle_beta     59.999995408974016
_cell_angle_gamma    59.99999816847938

_space_group_name_H-M_alt    "P 1"
_space_group_IT_number       1

loop_
  _space_group_symop_operation_xyz
  'x, y, z'

loop_
  _atom_site_type_symbol
  _atom_site_label
  _atom_site_symmetry_multiplicity
  _atom_site_fract_x
  _atom_site_fract_y
  _atom_site_fract_z
  _atom_site_occupancy
  W   W1        1.0  0.25000103636590243  0.2500007699922103  0.24999956133098888  1.0000
  W   W2        1.0  0.7499990445372353  0.7500008478435989  0.7500065794644617  1.0000
  Pt  Pt1       1.0  0.9999999208824024  0.999999934913017  9.298002586907247e-08  1.0000
  O   O1        1.0  0.25739181854160287  0.257390878847016  0.7426080303604402  1.0000
  O   O2        1.0  0.74260832256166  0.7426089607204249  0.2573883427073813  1.0000
  O   O3        1.0  0.7426081259380489  0.25739302337349373  0.2573895164377916  1.0000
  O   O4        1.0  0.2573902747174033  0.7426075995620004  0.7426095140452442  1.0000
  O   O5        1.0  0.2573928753311301  0.7426086298845866  0.2573897109556362  1.0000
  O   O6        1.0  0.7426085386323772  0.2573893175112884  0.7426086818433566  1.0000
