data_image0
_chemical_formula_structural       W2ReS6
_chemical_formula_sum              "W2 Re1 S6"
_cell_length_a       5.846605448006643
_cell_length_b       5.846605206782014
_cell_length_c       5.846605846701179
_cell_angle_alpha    60.00000031677721
_cell_angle_beta     60.00000123148752
_cell_angle_gamma    60.00000140716358

_space_group_name_H-M_alt    "P 1"
_space_group_IT_number       1

loop_
  _space_group_symop_operation_xyz
  'x, y, z'

loop_
  _atom_site_type_symbol
  _atom_site_label
  _atom_site_symmetry_multiplicity
  _atom_site_fract_x
  _atom_site_fract_y
  _atom_site_fract_z
  _atom_site_occupancy
  W   W1        1.0  0.24999986820187714  0.2500000490245328  0.2500001300990436  1.0000
  W   W2        1.0  0.7500000255598617  0.7500000632817331  0.7499999087138415  1.0000
  Re  Re1       1.0  0.9999999565501524  0.9999999999999987  6.331376659289866e-09  1.0000
  S   S1        1.0  0.2734079842458368  0.2734080827612524  0.7265919824021496  1.0000
  S   S2        1.0  0.7265920566854805  0.726591872435272  0.27340806651199834  1.0000
  S   S3        1.0  0.7265919843757234  0.2734079378642794  0.2734080448390329  1.0000
  S   S4        1.0  0.27340799878102456  0.7265920780813424  0.7265919187785416  1.0000
  S   S5        1.0  0.2734080605049447  0.726591969559326  0.273407949708697  1.0000
  S   S6        1.0  0.7265920557362687  0.27340793745687586  0.7265920120937194  1.0000
