data_image0
_chemical_formula_structural       W2ReO6
_chemical_formula_sum              "W2 Re1 O6"
_cell_length_a       5.3653836358993034
_cell_length_b       5.3653833847398325
_cell_length_c       5.3653828641065395
_cell_angle_alpha    60.000002112715734
_cell_angle_beta     60.00000267662602
_cell_angle_gamma    60.00000424919535

_space_group_name_H-M_alt    "P 1"
_space_group_IT_number       1

loop_
  _space_group_symop_operation_xyz
  'x, y, z'

loop_
  _atom_site_type_symbol
  _atom_site_label
  _atom_site_symmetry_multiplicity
  _atom_site_fract_x
  _atom_site_fract_y
  _atom_site_fract_z
  _atom_site_occupancy
  W   W1        1.0  0.25000048081619863  0.25000091894920656  0.24999647193527127  1.0000
  W   W2        1.0  0.7499982941409471  0.7499990178191455  0.7499987826300112  1.0000
  Re  Re1       1.0  0.999999948195921  4.565357832579587e-08  2.3605023721577144e-07  1.0000
  O   O1        1.0  0.24752073814868827  0.24752265298318318  0.7524790879731036  1.0000
  O   O2        1.0  0.752479782864995  0.7524769847542451  0.24752307720370287  1.0000
  O   O3        1.0  0.7524779980748622  0.2475214895821932  0.24752213616613314  1.0000
  O   O4        1.0  0.2475230387116218  0.7524781116323935  0.7524790867331267  1.0000
  O   O5        1.0  0.24752241387207624  0.7524794949616428  0.24752127600194426  1.0000
  O   O6        1.0  0.7524773188123817  0.2475212681365407  0.7524798819491488  1.0000
