data_image0
_chemical_formula_structural       W2ReTe6
_chemical_formula_sum              "W2 Re1 Te6"
_cell_length_a       7.085811779454453
_cell_length_b       7.085811797959159
_cell_length_c       7.085811754192182
_cell_angle_alpha    59.999999966465204
_cell_angle_beta     60.000000412717625
_cell_angle_gamma    59.99999977404351

_space_group_name_H-M_alt    "P 1"
_space_group_IT_number       1

loop_
  _space_group_symop_operation_xyz
  'x, y, z'

loop_
  _atom_site_type_symbol
  _atom_site_label
  _atom_site_symmetry_multiplicity
  _atom_site_fract_x
  _atom_site_fract_y
  _atom_site_fract_z
  _atom_site_occupancy
  W   W1        1.0  0.25000023408714916  0.2500000293427558  0.24999983493191583  1.0000
  W   W2        1.0  0.7500000445659096  0.749999939381845  0.7499998839751211  1.0000
  Re  Re1       1.0  0.9999999579101174  1.382757443346558e-08  4.80016557732253e-08  1.0000
  Te  Te1       1.0  0.2584434862864824  0.2584435591683888  0.7415564485666973  1.0000
  Te  Te2       1.0  0.7415564266113555  0.7415565046207866  0.25844360608613065  1.0000
  Te  Te3       1.0  0.7415564476358009  0.2584435514160661  0.25844353451723917  1.0000
  Te  Te4       1.0  0.25844350473671945  0.7415563792827055  0.7415565443631152  1.0000
  Te  Te5       1.0  0.25844352102306833  0.7415565021148011  0.258443558633815  1.0000
  Te  Te6       1.0  0.74155637962882  0.25844352019165084  0.7415565412298714  1.0000
