data_image0
_chemical_formula_structural       W2RhO6
_chemical_formula_sum              "W2 Rh1 O6"
_cell_length_a       5.229451502593517
_cell_length_b       5.229450315683856
_cell_length_c       5.229450794751694
_cell_angle_alpha    59.99999322033295
_cell_angle_beta     60.000000953406094
_cell_angle_gamma    59.99999742389664

_space_group_name_H-M_alt    "P 1"
_space_group_IT_number       1

loop_
  _space_group_symop_operation_xyz
  'x, y, z'

loop_
  _atom_site_type_symbol
  _atom_site_label
  _atom_site_symmetry_multiplicity
  _atom_site_fract_x
  _atom_site_fract_y
  _atom_site_fract_z
  _atom_site_occupancy
  W   W1        1.0  0.250003220838914  0.24999782219435704  0.2500000255312372  1.0000
  W   W2        1.0  0.7499967767838368  0.7500055209324092  0.749999643247964  1.0000
  Rh  Rh1       1.0  1.3026513350904225e-08  0.9999999344235874  2.818719783935067e-08  1.0000
  O   O1        1.0  0.25767056131651206  0.257667093636797  0.7423311096448069  1.0000
  O   O2        1.0  0.7423300341832809  0.742332183752431  0.257668547183509  1.0000
  O   O3        1.0  0.7423296503801715  0.25766759801935535  0.2576700706475775  1.0000
  O   O4        1.0  0.2576696657123242  0.742331496692647  0.7423306824621577  1.0000
  O   O5        1.0  0.25766943246184515  0.7423317380131602  0.2576683000099536  1.0000
  O   O6        1.0  0.7423306449375591  0.2576666095961969  0.742331604609105  1.0000
