data_image0
_chemical_formula_structural       W2RhS6
_chemical_formula_sum              "W2 Rh1 S6"
_cell_length_a       5.861871134293601
_cell_length_b       5.861871102619291
_cell_length_c       5.861871068975809
_cell_angle_alpha    59.999999968029826
_cell_angle_beta     59.99999983246846
_cell_angle_gamma    59.999999812933495

_space_group_name_H-M_alt    "P 1"
_space_group_IT_number       1

loop_
  _space_group_symop_operation_xyz
  'x, y, z'

loop_
  _atom_site_type_symbol
  _atom_site_label
  _atom_site_symmetry_multiplicity
  _atom_site_fract_x
  _atom_site_fract_y
  _atom_site_fract_z
  _atom_site_occupancy
  W   W1        1.0  0.2499999380818983  0.25000007334660507  0.2500000108534068  1.0000
  W   W2        1.0  0.7500000144979426  0.7499999797655786  0.7499999655682773  1.0000
  Rh  Rh1       1.0  8.695337369985337e-09  0.9999999916426352  2.7126052772166346e-08  1.0000
  S   S1        1.0  0.2704532392110825  0.27045327957395404  0.7295467324092091  1.0000
  S   S2        1.0  0.7295467576408828  0.7295467589128413  0.27045322918910647  1.0000
  S   S3        1.0  0.7295467443621806  0.27045323970873875  0.27045329956237585  1.0000
  S   S4        1.0  0.270453299230226  0.7295467235617736  0.7295467564530381  1.0000
  S   S5        1.0  0.2704532585379384  0.729546711250119  0.2704532566161232  1.0000
  S   S6        1.0  0.7295467550492583  0.2704532415736876  0.729546722386672  1.0000
