data_image0
_chemical_formula_structural       W2RuSe6
_chemical_formula_sum              "W2 Ru1 Se6"
_cell_length_a       6.156457680927569
_cell_length_b       6.156457349793138
_cell_length_c       6.15645762677818
_cell_angle_alpha    60.000001946455654
_cell_angle_beta     60.00000543011
_cell_angle_gamma    60.00000561781232

_space_group_name_H-M_alt    "P 1"
_space_group_IT_number       1

loop_
  _space_group_symop_operation_xyz
  'x, y, z'

loop_
  _atom_site_type_symbol
  _atom_site_label
  _atom_site_symmetry_multiplicity
  _atom_site_fract_x
  _atom_site_fract_y
  _atom_site_fract_z
  _atom_site_occupancy
  W   W1        1.0  0.2499994251028848  0.2500002861009669  0.25000027537293285  1.0000
  W   W2        1.0  0.7499999379322249  0.7499999610988003  0.7499996946018723  1.0000
  Ru  Ru1       1.0  1.4660182660384294e-07  0.9999998527869067  3.2791849210825285e-08  1.0000
  Se  Se1       1.0  0.27340466651711287  0.27340474724590397  0.7265954364296069  1.0000
  Se  Se2       1.0  0.7265954588863262  0.7265951259530593  0.2734047827982766  1.0000
  Se  Se3       1.0  0.7265951593090418  0.2734047029459538  0.27340468660587397  1.0000
  Se  Se4       1.0  0.27340501341641876  0.7265953771470942  0.7265950790275126  1.0000
  Se  Se5       1.0  0.2734047523685315  0.7265951952270567  0.27340490123633343  1.0000
  Se  Se6       1.0  0.7265954376566689  0.27340473168479573  0.726595127255062  1.0000
