data_image0
_chemical_formula_structural       W2RuS6
_chemical_formula_sum              "W2 Ru1 S6"
_cell_length_a       5.847214249699278
_cell_length_b       5.84721432816196
_cell_length_c       5.847214386902802
_cell_angle_alpha    60.00000044898764
_cell_angle_beta     60.000000076929894
_cell_angle_gamma    60.00000139656321

_space_group_name_H-M_alt    "P 1"
_space_group_IT_number       1

loop_
  _space_group_symop_operation_xyz
  'x, y, z'

loop_
  _atom_site_type_symbol
  _atom_site_label
  _atom_site_symmetry_multiplicity
  _atom_site_fract_x
  _atom_site_fract_y
  _atom_site_fract_z
  _atom_site_occupancy
  W   W1        1.0  0.2500000092412331  0.250000062254365  0.24999994622741942  1.0000
  W   W2        1.0  0.7499999728917847  0.7499999898727291  0.7500000192703109  1.0000
  Ru  Ru1       1.0  0.9999999860566974  6.28373521614545e-09  5.513626572360786e-08  1.0000
  S   S1        1.0  0.27143147056189526  0.27143142870007464  0.7285685422799931  1.0000
  S   S2        1.0  0.7285685597053186  0.7285685501167776  0.2714314358057603  1.0000
  S   S3        1.0  0.7285685568175114  0.2714314385535262  0.2714314546898914  1.0000
  S   S4        1.0  0.27143144871524016  0.7285685256012775  0.728568570457574  1.0000
  S   S5        1.0  0.27143145202669605  0.7285685334989914  0.2714314525235326  1.0000
  S   S6        1.0  0.7285685562782743  0.2714314578853307  0.7285685456515519  1.0000
