data_image0
_chemical_formula_structural       W2RuO6
_chemical_formula_sum              "W2 Ru1 O6"
_cell_length_a       5.2667455794209515
_cell_length_b       5.266745293237008
_cell_length_c       5.266745702951501
_cell_angle_alpha    60.00000112978622
_cell_angle_beta     60.00000112370911
_cell_angle_gamma    60.00000030320407

_space_group_name_H-M_alt    "P 1"
_space_group_IT_number       1

loop_
  _space_group_symop_operation_xyz
  'x, y, z'

loop_
  _atom_site_type_symbol
  _atom_site_label
  _atom_site_symmetry_multiplicity
  _atom_site_fract_x
  _atom_site_fract_y
  _atom_site_fract_z
  _atom_site_occupancy
  W   W1        1.0  0.2500021273827479  0.2500009795645741  0.24999892581216707  1.0000
  W   W2        1.0  0.7500006361255145  0.7500029968293942  0.7499980644412885  1.0000
  Ru  Ru1       1.0  0.999999998449713  4.650859165530679e-09  0.9999999623743061  1.0000
  O   O1        1.0  0.25188741386347335  0.25188698134014886  0.7481126852900791  1.0000
  O   O2        1.0  0.7481124279348104  0.7481124674411651  0.25188768595879557  1.0000
  O   O3        1.0  0.7481115554628545  0.2518861334297521  0.2518884968151323  1.0000
  O   O4        1.0  0.25188695162471264  0.7481122549553758  0.7481130283169143  1.0000
  O   O5        1.0  0.2518869433459438  0.7481120539768832  0.25188777151686953  1.0000
  O   O6        1.0  0.7481119307905719  0.25188609488892477  0.7481134126393315  1.0000
