data_image0
_chemical_formula_structural       W2SeS6
_chemical_formula_sum              "W2 Se1 S6"
_cell_length_a       5.8892283023626195
_cell_length_b       5.889227852601647
_cell_length_c       5.8892282446172235
_cell_angle_alpha    59.99999738966611
_cell_angle_beta     59.999998110621235
_cell_angle_gamma    59.9999962354699

_space_group_name_H-M_alt    "P 1"
_space_group_IT_number       1

loop_
  _space_group_symop_operation_xyz
  'x, y, z'

loop_
  _atom_site_type_symbol
  _atom_site_label
  _atom_site_symmetry_multiplicity
  _atom_site_fract_x
  _atom_site_fract_y
  _atom_site_fract_z
  _atom_site_occupancy
  W   W1        1.0  0.2500000460505555  0.2499999508527767  0.24999999280612964  1.0000
  W   W2        1.0  0.7499999463768445  0.7500000043717474  0.7500000442455087  1.0000
  Se  Se1       1.0  0.999999987661529  0.9999999958407285  9.946886842039263e-09  1.0000
  S   S1        1.0  0.26462065401117046  0.2646205681057674  0.7353793829136199  1.0000
  S   S2        1.0  0.7353793713709006  0.7353794411892874  0.26462056817503277  1.0000
  S   S3        1.0  0.7353793622120397  0.2646206228326689  0.26462057840731107  1.0000
  S   S4        1.0  0.2646205999519071  0.7353794114180167  0.7353794359609886  1.0000
  S   S5        1.0  0.264620599394076  0.7353794034205521  0.2646206031135873  1.0000
  S   S6        1.0  0.7353794345240033  0.2646206037948671  0.7353793770091708  1.0000
