data_image0
_chemical_formula_structural       W2SeO6
_chemical_formula_sum              "W2 Se1 O6"
_cell_length_a       5.061283976924113
_cell_length_b       5.061283900161858
_cell_length_c       5.06128396503787
_cell_angle_alpha    59.999999442713545
_cell_angle_beta     59.9999989795103
_cell_angle_gamma    60.00000051998574

_space_group_name_H-M_alt    "P 1"
_space_group_IT_number       1

loop_
  _space_group_symop_operation_xyz
  'x, y, z'

loop_
  _atom_site_type_symbol
  _atom_site_label
  _atom_site_symmetry_multiplicity
  _atom_site_fract_x
  _atom_site_fract_y
  _atom_site_fract_z
  _atom_site_occupancy
  W   W1        1.0  0.25000008662265616  0.2499999666634123  0.250000187868775  1.0000
  W   W2        1.0  0.7500001321508593  0.750000057279212  0.7500004796679798  1.0000
  Se  Se1       1.0  1.3688628725659444e-08  0.0  0.9999999180759226  1.0000
  O   O1        1.0  0.2499985623871493  0.249998629816661  0.7500012701743822  1.0000
  O   O2        1.0  0.750001333343446  0.7500014255837514  0.2499984307889807  1.0000
  O   O3        1.0  0.7500013412186721  0.2499987014050046  0.249998434305874  1.0000
  O   O4        1.0  0.24999849639257796  0.7500013709342201  0.7500013781337844  1.0000
  O   O5        1.0  0.2499986188334021  0.7500014034923479  0.24999854689016615  1.0000
  O   O6        1.0  0.7500014317622605  0.24999842686383802  0.7500013136371189  1.0000
