data_image0
_chemical_formula_structural       W2SiO6
_chemical_formula_sum              "W2 Si1 O6"
_cell_length_a       4.914949115917194
_cell_length_b       4.9149491218293795
_cell_length_c       4.914949073278592
_cell_angle_alpha    59.999999387331655
_cell_angle_beta     59.99999860174782
_cell_angle_gamma    60.00000000930444

_space_group_name_H-M_alt    "P 1"
_space_group_IT_number       1

loop_
  _space_group_symop_operation_xyz
  'x, y, z'

loop_
  _atom_site_type_symbol
  _atom_site_label
  _atom_site_symmetry_multiplicity
  _atom_site_fract_x
  _atom_site_fract_y
  _atom_site_fract_z
  _atom_site_occupancy
  W   W1        1.0  0.2500003181444622  0.24999951211951316  0.24999941527564112  1.0000
  W   W2        1.0  0.750000113360265  0.7499999741715645  0.7499998660933322  1.0000
  Si  Si1       1.0  0.9999999673694753  2.7410646866251648e-08  2.9059857141001225e-08  1.0000
  O   O1        1.0  0.24860755312880956  0.24860787141326823  0.7513925445951107  1.0000
  O   O2        1.0  0.7513922391937453  0.7513923624409058  0.24860777516847798  1.0000
  O   O3        1.0  0.7513922391629663  0.24860772848280252  0.2486078632641825  1.0000
  O   O4        1.0  0.2486077761864196  0.7513923085130891  0.7513922989578861  1.0000
  O   O5        1.0  0.24860770486130318  0.7513924776215827  0.24860784006384176  1.0000
  O   O6        1.0  0.7513921082024435  0.24860773629757546  0.7513924101199504  1.0000
