data_image0
_chemical_formula_structural       W2SiTe6
_chemical_formula_sum              "W2 Si1 Te6"
_cell_length_a       7.0626027342903175
_cell_length_b       7.062602808936247
_cell_length_c       7.062602758710136
_cell_angle_alpha    59.999999868289805
_cell_angle_beta     59.999999461679934
_cell_angle_gamma    60.000000147460526

_space_group_name_H-M_alt    "P 1"
_space_group_IT_number       1

loop_
  _space_group_symop_operation_xyz
  'x, y, z'

loop_
  _atom_site_type_symbol
  _atom_site_label
  _atom_site_symmetry_multiplicity
  _atom_site_fract_x
  _atom_site_fract_y
  _atom_site_fract_z
  _atom_site_occupancy
  W   W1        1.0  0.24999989322696187  0.2500001217019352  0.2499999104257683  1.0000
  W   W2        1.0  0.7500001347668879  0.7499998778161788  0.7500000829494561  1.0000
  Si  Si1       1.0  0.9999999989601074  0.9999999687857177  6.143616276485041e-08  1.0000
  Te  Te1       1.0  0.25656373957882894  0.25656382846396936  0.7434362372822289  1.0000
  Te  Te2       1.0  0.743436272643559  0.7434361693200179  0.2565637308639833  1.0000
  Te  Te3       1.0  0.7434362601529944  0.2565637933777084  0.2565637884035496  1.0000
  Te  Te4       1.0  0.2565637723008726  0.7434361437118413  0.7434362070536848  1.0000
  Te  Te5       1.0  0.25656378757222137  0.7434362316635806  0.2565637618675089  1.0000
  Te  Te6       1.0  0.7434361442881947  0.25656386496563327  0.7434362126120702  1.0000
