data_image0
_chemical_formula_structural       W2SiSe6
_chemical_formula_sum              "W2 Si1 Se6"
_cell_length_a       6.316325859691237
_cell_length_b       6.316325871181073
_cell_length_c       6.316325841717198
_cell_angle_alpha    59.999999301004976
_cell_angle_beta     60.00000050548872
_cell_angle_gamma    60.00000000574129

_space_group_name_H-M_alt    "P 1"
_space_group_IT_number       1

loop_
  _space_group_symop_operation_xyz
  'x, y, z'

loop_
  _atom_site_type_symbol
  _atom_site_label
  _atom_site_symmetry_multiplicity
  _atom_site_fract_x
  _atom_site_fract_y
  _atom_site_fract_z
  _atom_site_occupancy
  W   W1        1.0  0.25000002337138466  0.24999998345602994  0.25000000194815125  1.0000
  W   W2        1.0  0.7499999585607455  0.7500000162945897  0.7500000397402994  1.0000
  Si  Si1       1.0  3.650533242612552e-08  9.88897503358415e-08  0.9999999497176458  1.0000
  Se  Se1       1.0  0.2561568833053092  0.2561568925011858  0.7438431030533235  1.0000
  Se  Se2       1.0  0.7438430304509148  0.7438431033714048  0.2561569192501337  1.0000
  Se  Se3       1.0  0.7438431373265947  0.256156853912492  0.2561568800482006  1.0000
  Se  Se4       1.0  0.256156900871749  0.7438431031798052  0.7438430455955823  1.0000
  Se  Se5       1.0  0.2561569063874456  0.7438430970212901  0.25615690254941853  1.0000
  Se  Se6       1.0  0.7438431326790258  0.2561568464979026  0.743843157685962  1.0000
