data_image0
_chemical_formula_structural       W2SiS6
_chemical_formula_sum              "W2 Si1 S6"
_cell_length_a       5.791121989100461
_cell_length_b       5.791121951557255
_cell_length_c       5.7911217265624515
_cell_angle_alpha    59.99999965912679
_cell_angle_beta     60.00000039544487
_cell_angle_gamma    59.99999921391634

_space_group_name_H-M_alt    "P 1"
_space_group_IT_number       1

loop_
  _space_group_symop_operation_xyz
  'x, y, z'

loop_
  _atom_site_type_symbol
  _atom_site_label
  _atom_site_symmetry_multiplicity
  _atom_site_fract_x
  _atom_site_fract_y
  _atom_site_fract_z
  _atom_site_occupancy
  W   W1        1.0  0.2500000596159541  0.24999996382986459  0.24999993592886874  1.0000
  W   W2        1.0  0.7499999669468023  0.750000024726171  0.7500000318844336  1.0000
  Si  Si1       1.0  0.9999999833437238  2.1148657693319186e-09  5.38937971750455e-08  1.0000
  S   S1        1.0  0.2597451961585637  0.25974524374615704  0.7402547787351731  1.0000
  S   S2        1.0  0.7402547917733462  0.7402548188302002  0.2597451748369537  1.0000
  S   S3        1.0  0.7402547209353354  0.2597451784831217  0.25974530923764744  1.0000
  S   S4        1.0  0.25974527394593006  0.7402548333364433  0.7402546886863534  1.0000
  S   S5        1.0  0.2597452332043752  0.7402547323308392  0.259745274284139  1.0000
  S   S6        1.0  0.7402547902172099  0.25974521181300303  0.7402547587485948  1.0000
