data_image0
_chemical_formula_structural       W2SO6
_chemical_formula_sum              "W2 S1 O6"
_cell_length_a       4.815159731148346
_cell_length_b       4.815159779206253
_cell_length_c       4.8151597132351664
_cell_angle_alpha    59.99999893303817
_cell_angle_beta     59.999999019893764
_cell_angle_gamma    59.999999591932195

_space_group_name_H-M_alt    "P 1"
_space_group_IT_number       1

loop_
  _space_group_symop_operation_xyz
  'x, y, z'

loop_
  _atom_site_type_symbol
  _atom_site_label
  _atom_site_symmetry_multiplicity
  _atom_site_fract_x
  _atom_site_fract_y
  _atom_site_fract_z
  _atom_site_occupancy
  W   W1        1.0  0.25000013903485463  0.2499998119322092  0.2500000908727652  1.0000
  W   W2        1.0  0.7500000895561265  0.749999929239253  0.7499999757634445  1.0000
  S   S1        1.0  1.0706024054986501e-08  2.5435187099753332e-08  0.9999999570081023  1.0000
  O   O1        1.0  0.24635798258632235  0.24635799535467212  0.753641953553998  1.0000
  O   O2        1.0  0.75364193575386  0.7536420866482937  0.24635798979959384  1.0000
  O   O3        1.0  0.753642008955538  0.24635799429263072  0.24635798028010672  1.0000
  O   O4        1.0  0.2463579728727792  0.7536420699057036  0.7536419942278653  1.0000
  O   O5        1.0  0.2463579315875821  0.753642073989603  0.24635797128654627  1.0000
  O   O6        1.0  0.7536419620697019  0.24635800292632382  0.753642097021053  1.0000
