data_image0
_chemical_formula_structural       W2TiSe6
_chemical_formula_sum              "W2 Ti1 Se6"
_cell_length_a       6.434920593421191
_cell_length_b       6.434921308883223
_cell_length_c       6.434921061999946
_cell_angle_alpha    60.00000236912699
_cell_angle_beta     59.999996975016
_cell_angle_gamma    60.00000239682919

_space_group_name_H-M_alt    "P 1"
_space_group_IT_number       1

loop_
  _space_group_symop_operation_xyz
  'x, y, z'

loop_
  _atom_site_type_symbol
  _atom_site_label
  _atom_site_symmetry_multiplicity
  _atom_site_fract_x
  _atom_site_fract_y
  _atom_site_fract_z
  _atom_site_occupancy
  W   W1        1.0  0.2499999434677634  0.2500003306586435  0.24999984504724038  1.0000
  W   W2        1.0  0.7499992517205715  0.7500003163120168  0.7499999602923542  1.0000
  Ti  Ti1       1.0  1.3503941218032655e-07  0.9999997563803381  2.0347610142150663e-07  1.0000
  Se  Se1       1.0  0.2598029058638737  0.25980312701458036  0.7401968629862998  1.0000
  Se  Se2       1.0  0.7401973383533749  0.7401967415151255  0.2598030852289941  1.0000
  Se  Se3       1.0  0.7401971826716178  0.25980288678622604  0.25980338082341276  1.0000
  Se  Se4       1.0  0.25980305157196676  0.7401972539123289  0.7401968434476927  1.0000
  Se  Se5       1.0  0.2598035521279652  0.7401964341034378  0.25980267962935444  1.0000
  Se  Se6       1.0  0.7401966249926919  0.25980318890332116  0.7401971265237485  1.0000
