data_image0
_chemical_formula_structural       W2TiO6
_chemical_formula_sum              "W2 Ti1 O6"
_cell_length_a       4.653361030727453
_cell_length_b       4.653360901976378
_cell_length_c       4.653360749661821
_cell_angle_alpha    59.99999567460719
_cell_angle_beta     59.999995619853124
_cell_angle_gamma    59.999995935487746

_space_group_name_H-M_alt    "P 1"
_space_group_IT_number       1

loop_
  _space_group_symop_operation_xyz
  'x, y, z'

loop_
  _atom_site_type_symbol
  _atom_site_label
  _atom_site_symmetry_multiplicity
  _atom_site_fract_x
  _atom_site_fract_y
  _atom_site_fract_z
  _atom_site_occupancy
  W   W1        1.0  0.24999997944394103  0.24999990583882298  0.2500001823315777  1.0000
  W   W2        1.0  0.7500000527227104  0.750000051775094  0.7500005698031723  1.0000
  Ti  Ti1       1.0  5.313795412248815e-08  0.9999999894721736  0.9999998411599277  1.0000
  O   O1        1.0  0.2733256253337528  0.2733255942447405  0.7266743315531231  1.0000
  O   O2        1.0  0.7266743336930114  0.7266743817929187  0.2733254465129377  1.0000
  O   O3        1.0  0.7266743806088355  0.27332570165464504  0.27332550756533663  1.0000
  O   O4        1.0  0.2733255406931945  0.7266743875571942  0.7266743359272534  1.0000
  O   O5        1.0  0.27332564028068096  0.7266743623134952  0.2733255206376656  1.0000
  O   O6        1.0  0.7266744023621986  0.27332565320352814  0.7266742324133856  1.0000
