data_image0
_chemical_formula_structural       W2TiTe6
_chemical_formula_sum              "W2 Ti1 Te6"
_cell_length_a       7.101068415068476
_cell_length_b       7.101068428814385
_cell_length_c       7.1010684171149245
_cell_angle_alpha    60.00000008902012
_cell_angle_beta     59.99999987277943
_cell_angle_gamma    60.00000073305351

_space_group_name_H-M_alt    "P 1"
_space_group_IT_number       1

loop_
  _space_group_symop_operation_xyz
  'x, y, z'

loop_
  _atom_site_type_symbol
  _atom_site_label
  _atom_site_symmetry_multiplicity
  _atom_site_fract_x
  _atom_site_fract_y
  _atom_site_fract_z
  _atom_site_occupancy
  W   W1        1.0  0.24999999328541375  0.24999996111363554  0.25000003833711  1.0000
  W   W2        1.0  0.7500000049042793  0.7499999057624388  0.7500000039657398  1.0000
  Ti  Ti1       1.0  0.9999999613513747  8.623665840814985e-09  1.9237196116387547e-08  1.0000
  Te  Te1       1.0  0.2593637319858757  0.2593636435008503  0.7406363279905298  1.0000
  Te  Te2       1.0  0.7406362699462988  0.740636368252815  0.25936367802473115  1.0000
  Te  Te3       1.0  0.7406363062676194  0.2593637315091751  0.25936367387736725  1.0000
  Te  Te4       1.0  0.25936370798283415  0.7406363164638881  0.7406363050525775  1.0000
  Te  Te5       1.0  0.2593636951040289  0.7406363177862636  0.2593636896907039  1.0000
  Te  Te6       1.0  0.7406363215277846  0.2593637474341318  0.7406362681589845  1.0000
