data_image0
_chemical_formula_structural       W2VO6
_chemical_formula_sum              "W2 V1 O6"
_cell_length_a       5.126088043337652
_cell_length_b       5.126088357875507
_cell_length_c       5.126087940487724
_cell_angle_alpha    59.99999715586359
_cell_angle_beta     59.99999708655967
_cell_angle_gamma    59.99999558101395

_space_group_name_H-M_alt    "P 1"
_space_group_IT_number       1

loop_
  _space_group_symop_operation_xyz
  'x, y, z'

loop_
  _atom_site_type_symbol
  _atom_site_label
  _atom_site_symmetry_multiplicity
  _atom_site_fract_x
  _atom_site_fract_y
  _atom_site_fract_z
  _atom_site_occupancy
  W   W1        1.0  0.24999786592443682  0.2500001162285988  0.25000152617540805  1.0000
  W   W2        1.0  0.7499989897040183  0.749999641470913  0.7500019630554405  1.0000
  V   V1        1.0  3.139970160522543e-08  7.167713473904676e-09  1.3879982994927894e-08  1.0000
  O   O1        1.0  0.25197358283328397  0.2519733805595973  0.7480263252787555  1.0000
  O   O2        1.0  0.7480273300878413  0.7480262003362046  0.25197273447982915  1.0000
  O   O3        1.0  0.7480273780677255  0.25197369549492865  0.25197272763276274  1.0000
  O   O4        1.0  0.251973572604269  0.7480270561278639  0.7480260088028184  1.0000
  O   O5        1.0  0.2519740318209184  0.7480265836011509  0.25197261381487573  1.0000
  O   O6        1.0  0.7480271881753277  0.25197335329121984  0.7480260773425382  1.0000
