data_image0
_chemical_formula_structural       W2VS6
_chemical_formula_sum              "W2 V1 S6"
_cell_length_a       5.744599704203454
_cell_length_b       5.744599479049276
_cell_length_c       5.744599674972086
_cell_angle_alpha    60.000001271234126
_cell_angle_beta     60.000000201096455
_cell_angle_gamma    60.000001247047564

_space_group_name_H-M_alt    "P 1"
_space_group_IT_number       1

loop_
  _space_group_symop_operation_xyz
  'x, y, z'

loop_
  _atom_site_type_symbol
  _atom_site_label
  _atom_site_symmetry_multiplicity
  _atom_site_fract_x
  _atom_site_fract_y
  _atom_site_fract_z
  _atom_site_occupancy
  W   W1        1.0  0.24999990762185706  0.2500000480018703  0.2500000689994763  1.0000
  W   W2        1.0  0.7500000503665227  0.7499999755781266  0.7499999377182703  1.0000
  V   V1        1.0  4.613043007974321e-08  0.9999999701520923  0.9999999970810343  1.0000
  S   S1        1.0  0.2693352594313278  0.26933524911542484  0.7306647672195126  1.0000
  S   S2        1.0  0.7306647297635281  0.7306647893885282  0.2693352703967435  1.0000
  S   S3        1.0  0.7306648655837475  0.2693351810585779  0.2693351956935442  1.0000
  S   S4        1.0  0.2693352386132318  0.7306647295257677  0.7306648031215531  1.0000
  S   S5        1.0  0.26933514764307875  0.7306647788622563  0.2693352152719861  1.0000
  S   S6        1.0  0.7306647553629455  0.26933524684973237  0.7306647847964007  1.0000
