data_image0
_chemical_formula_structural       W2VSe6
_chemical_formula_sum              "W2 V1 Se6"
_cell_length_a       6.06443122678298
_cell_length_b       6.064431289351129
_cell_length_c       6.064431285827827
_cell_angle_alpha    60.000003402234086
_cell_angle_beta     60.000002676155994
_cell_angle_gamma    60.000000936074834

_space_group_name_H-M_alt    "P 1"
_space_group_IT_number       1

loop_
  _space_group_symop_operation_xyz
  'x, y, z'

loop_
  _atom_site_type_symbol
  _atom_site_label
  _atom_site_symmetry_multiplicity
  _atom_site_fract_x
  _atom_site_fract_y
  _atom_site_fract_z
  _atom_site_occupancy
  W   W1        1.0  0.2500001953957471  0.24999991831874457  0.2500000140813548  1.0000
  W   W2        1.0  0.7499998271326241  0.750000352744306  0.7499995886145414  1.0000
  V   V1        1.0  0.9999999323021851  0.9999998889245097  0.9999999244907243  1.0000
  Se  Se1       1.0  0.2704351863613489  0.27043533502651024  0.729564842079918  1.0000
  Se  Se2       1.0  0.7295647709541779  0.7295645947318754  0.27043540744475814  1.0000
  Se  Se3       1.0  0.7295646866259997  0.27043512371553213  0.2704353610515693  1.0000
  Se  Se4       1.0  0.27043541395558296  0.7295647818081963  0.7295647019875487  1.0000
  Se  Se5       1.0  0.2704353271171179  0.72956465226784  0.27043525807750757  1.0000
  Se  Se6       1.0  0.7295646423916001  0.27043530374474983  0.7295649079140614  1.0000
