data_image0
_chemical_formula_structural       W2VTe6
_chemical_formula_sum              "W2 V1 Te6"
_cell_length_a       6.957699268097447
_cell_length_b       6.957699125950528
_cell_length_c       6.957699195097065
_cell_angle_alpha    60.000000111355135
_cell_angle_beta     59.99999964103403
_cell_angle_gamma    60.00000075204184

_space_group_name_H-M_alt    "P 1"
_space_group_IT_number       1

loop_
  _space_group_symop_operation_xyz
  'x, y, z'

loop_
  _atom_site_type_symbol
  _atom_site_label
  _atom_site_symmetry_multiplicity
  _atom_site_fract_x
  _atom_site_fract_y
  _atom_site_fract_z
  _atom_site_occupancy
  W   W1        1.0  0.24999999859368666  0.25000004890382344  0.24999990280104303  1.0000
  W   W2        1.0  0.7500001142542723  0.7499998809102778  0.7500000810165175  1.0000
  V   V1        1.0  5.039206147499359e-08  0.9999999683150911  1.4874466376974653e-07  1.0000
  Te  Te1       1.0  0.25890625908173254  0.2589063573762987  0.7410937005788554  1.0000
  Te  Te2       1.0  0.7410937270986403  0.7410936586911686  0.25890624164377657  1.0000
  Te  Te3       1.0  0.7410937227821714  0.2589063069423503  0.2589062543537164  1.0000
  Te  Te4       1.0  0.2589063024089447  0.741093607029294  0.7410937222859686  1.0000
  Te  Te5       1.0  0.25890621997987556  0.7410937899260579  0.25890631586918555  1.0000
  Te  Te6       1.0  0.7410936065076871  0.25890636168241504  0.7410936355548366  1.0000
