data_image0
_chemical_formula_structural       Y2AgF6
_chemical_formula_sum              "Y2 Ag1 F6"
_cell_length_a       5.617587951006837
_cell_length_b       5.617588067091685
_cell_length_c       5.617587997423149
_cell_angle_alpha    59.99999936471762
_cell_angle_beta     59.99999926678725
_cell_angle_gamma    59.99999921752814

_space_group_name_H-M_alt    "P 1"
_space_group_IT_number       1

loop_
  _space_group_symop_operation_xyz
  'x, y, z'

loop_
  _atom_site_type_symbol
  _atom_site_label
  _atom_site_symmetry_multiplicity
  _atom_site_fract_x
  _atom_site_fract_y
  _atom_site_fract_z
  _atom_site_occupancy
  Y   Y1        1.0  0.2500000571397919  0.249999880666731  0.2500000249215495  1.0000
  Y   Y2        1.0  0.750000023625609  0.7499999188852159  0.750000061842598  1.0000
  Ag  Ag1       1.0  0.9999999770367256  0.9999999825584239  2.9103042604636962e-08  1.0000
  F   F1        1.0  0.2692756587110619  0.26927558600998236  0.7307243803749586  1.0000
  F   F2        1.0  0.7307241140127319  0.7307245580130979  0.2692755867073889  1.0000
  F   F3        1.0  0.7307244169000195  0.2692758136841075  0.26927553571024215  1.0000
  F   F4        1.0  0.26927561517064286  0.7307243477805456  0.7307244193666469  1.0000
  F   F5        1.0  0.26927570902070175  0.7307242761410289  0.2692756278970834  1.0000
  F   F6        1.0  0.7307244171083188  0.269275695646483  0.7307243126848781  1.0000
