data_image0
_chemical_formula_structural       Y2AgCl6
_chemical_formula_sum              "Y2 Ag1 Cl6"
_cell_length_a       6.819182238980042
_cell_length_b       6.819182616488401
_cell_length_c       6.81918244075081
_cell_angle_alpha    60.00000015690009
_cell_angle_beta     59.999999382972554
_cell_angle_gamma    60.00000052642781

_space_group_name_H-M_alt    "P 1"
_space_group_IT_number       1

loop_
  _space_group_symop_operation_xyz
  'x, y, z'

loop_
  _atom_site_type_symbol
  _atom_site_label
  _atom_site_symmetry_multiplicity
  _atom_site_fract_x
  _atom_site_fract_y
  _atom_site_fract_z
  _atom_site_occupancy
  Y   Y1        1.0  0.2499996024065051  0.2500002971427029  0.25000007153636333  1.0000
  Y   Y2        1.0  0.750000400301159  0.749999901816213  0.7499999583342207  1.0000
  Ag  Ag1       1.0  2.304022601054395e-08  0.9999999461191343  7.407837832339769e-08  1.0000
  Cl  Cl1       1.0  0.2616180688819165  0.26161821929682705  0.7383818346101415  1.0000
  Cl  Cl2       1.0  0.7383819322910388  0.7383817048696791  0.261618109056931  1.0000
  Cl  Cl3       1.0  0.7383819399487357  0.2616181746299433  0.2616181336760379  1.0000
  Cl  Cl4       1.0  0.26161807983303287  0.7383817800690528  0.7383818308803781  1.0000
  Cl  Cl5       1.0  0.26161811587899203  0.738381768316042  0.26161825092385427  1.0000
  Cl  Cl6       1.0  0.7383818379486888  0.26161821152735787  0.7383817443025633  1.0000
