data_image0
_chemical_formula_structural       Y2AgBr6
_chemical_formula_sum              "Y2 Ag1 Br6"
_cell_length_a       7.163061687370188
_cell_length_b       7.1630616034961525
_cell_length_c       7.1630616781533
_cell_angle_alpha    60.000000159174874
_cell_angle_beta     59.99999983000623
_cell_angle_gamma    60.000000807779486

_space_group_name_H-M_alt    "P 1"
_space_group_IT_number       1

loop_
  _space_group_symop_operation_xyz
  'x, y, z'

loop_
  _atom_site_type_symbol
  _atom_site_label
  _atom_site_symmetry_multiplicity
  _atom_site_fract_x
  _atom_site_fract_y
  _atom_site_fract_z
  _atom_site_occupancy
  Y   Y1        1.0  0.2500000114940092  0.2500000550021189  0.25000002327342974  1.0000
  Y   Y2        1.0  0.7500000473168421  0.7499999427315218  0.7499999637365854  1.0000
  Ag  Ag1       1.0  1.8497736511919903e-08  0.9999999880313554  2.3196583193729626e-09  1.0000
  Br  Br1       1.0  0.25999186891922565  0.2599919516071253  0.7400080626461618  1.0000
  Br  Br2       1.0  0.7400081141266421  0.7400080461265145  0.2599919315332216  1.0000
  Br  Br3       1.0  0.7400080111485793  0.25999192956667044  0.25999192600996784  1.0000
  Br  Br4       1.0  0.2599919198236916  0.7400080938140651  0.7400080799866154  1.0000
  Br  Br5       1.0  0.2599919124346598  0.7400080513606867  0.2599919324257699  1.0000
  Br  Br6       1.0  0.7400080970712636  0.2599919395337278  0.740008078468169  1.0000
