data_image0
_chemical_formula_structural       Y2AgI6
_chemical_formula_sum              "Y2 Ag1 I6"
_cell_length_a       7.717366153193818
_cell_length_b       7.717366171584152
_cell_length_c       7.717366101729675
_cell_angle_alpha    60.00000026188103
_cell_angle_beta     60.00000028253549
_cell_angle_gamma    59.99999989285024

_space_group_name_H-M_alt    "P 1"
_space_group_IT_number       1

loop_
  _space_group_symop_operation_xyz
  'x, y, z'

loop_
  _atom_site_type_symbol
  _atom_site_label
  _atom_site_symmetry_multiplicity
  _atom_site_fract_x
  _atom_site_fract_y
  _atom_site_fract_z
  _atom_site_occupancy
  Y   Y1        1.0  0.25000000718262344  0.25000000416675117  0.2499999994424589  1.0000
  Y   Y2        1.0  0.7499999883895249  0.7499999728252905  0.750000096941417  1.0000
  Ag  Ag1       1.0  8.920474192373587e-10  0.9999999793690193  0.9999999930243413  1.0000
  I   I1        1.0  0.2576658545632475  0.2576658351121578  0.7423341601687932  1.0000
  I   I2        1.0  0.7423341593864046  0.7423341720328557  0.25766581476642897  1.0000
  I   I3        1.0  0.7423341701228628  0.257665852532576  0.25766578358733794  1.0000
  I   I4        1.0  0.2576658293026613  0.7423341577864344  0.7423341892482765  1.0000
  I   I5        1.0  0.25766584471685566  0.7423341914331193  0.2576657764756773  1.0000
  I   I6        1.0  0.7423341494186732  0.2576658347558766  0.7423341858868264  1.0000
