data_image0
_chemical_formula_structural       Y2AuBr6
_chemical_formula_sum              "Y2 Au1 Br6"
_cell_length_a       7.2003361809869
_cell_length_b       7.200336135447271
_cell_length_c       7.20033625091708
_cell_angle_alpha    60.000000291617965
_cell_angle_beta     60.00000001581281
_cell_angle_gamma    60.000000200884784

_space_group_name_H-M_alt    "P 1"
_space_group_IT_number       1

loop_
  _space_group_symop_operation_xyz
  'x, y, z'

loop_
  _atom_site_type_symbol
  _atom_site_label
  _atom_site_symmetry_multiplicity
  _atom_site_fract_x
  _atom_site_fract_y
  _atom_site_fract_z
  _atom_site_occupancy
  Y   Y1        1.0  0.2500000037327133  0.24999999195399517  0.25000003136518273  1.0000
  Y   Y2        1.0  0.7499999994860127  0.7500000013763113  0.7499999746997028  1.0000
  Au  Au1       1.0  2.3652194323125132e-09  0.9999999880933144  3.532486167183223e-08  1.0000
  Br  Br1       1.0  0.25765013503523954  0.2576501250275091  0.7423498429331261  1.0000
  Br  Br2       1.0  0.7423498404679812  0.7423498359846498  0.2576501514838647  1.0000
  Br  Br3       1.0  0.7423498540953509  0.25765015625867854  0.257650151015125  1.0000
  Br  Br4       1.0  0.25765015929572493  0.7423498642869101  0.7423498349671206  1.0000
  Br  Br5       1.0  0.2576501614117875  0.7423498433775318  0.25765015140770425  1.0000
  Br  Br6       1.0  0.7423498398947344  0.25765019417760815  0.742349833500867  1.0000
