data_image0
_chemical_formula_structural       Y2AuI6
_chemical_formula_sum              "Y2 Au1 I6"
_cell_length_a       7.772063644445768
_cell_length_b       7.772063618560189
_cell_length_c       7.772063661136486
_cell_angle_alpha    59.99999977888088
_cell_angle_beta     60.000000086953854
_cell_angle_gamma    59.99999995771042

_space_group_name_H-M_alt    "P 1"
_space_group_IT_number       1

loop_
  _space_group_symop_operation_xyz
  'x, y, z'

loop_
  _atom_site_type_symbol
  _atom_site_label
  _atom_site_symmetry_multiplicity
  _atom_site_fract_x
  _atom_site_fract_y
  _atom_site_fract_z
  _atom_site_occupancy
  Y   Y1        1.0  0.2500000459295465  0.24999995429460664  0.24999998845798876  1.0000
  Y   Y2        1.0  0.7500000317163515  0.7499999716160695  0.7500000463901969  1.0000
  Au  Au1       1.0  1.9388844846389175e-08  2.206161592184471e-08  0.999999998574663  1.0000
  I   I1        1.0  0.2585556497540584  0.25855567062552803  0.7414443411813897  1.0000
  I   I2        1.0  0.7414443058527359  0.7414443183183362  0.2585556665567332  1.0000
  I   I3        1.0  0.741444327391815  0.25855568092981784  0.2585556707952202  1.0000
  I   I4        1.0  0.25855565039499057  0.7414443395306408  0.741444301087983  1.0000
  I   I5        1.0  0.25855566754068215  0.7414443526440142  0.2585556512748786  1.0000
  I   I6        1.0  0.7414443028922515  0.25855568987806016  0.7414443338410054  1.0000
