data_image0
_chemical_formula_structural       Y2AuF6
_chemical_formula_sum              "Y2 Au1 F6"
_cell_length_a       5.76135619103636
_cell_length_b       5.761355681205015
_cell_length_c       5.76135586782442
_cell_angle_alpha    60.00000184262433
_cell_angle_beta     60.000003796607366
_cell_angle_gamma    60.00000459850294

_space_group_name_H-M_alt    "P 1"
_space_group_IT_number       1

loop_
  _space_group_symop_operation_xyz
  'x, y, z'

loop_
  _atom_site_type_symbol
  _atom_site_label
  _atom_site_symmetry_multiplicity
  _atom_site_fract_x
  _atom_site_fract_y
  _atom_site_fract_z
  _atom_site_occupancy
  Y   Y1        1.0  0.2500004824694731  0.24999972381324315  0.2499999001453374  1.0000
  Y   Y2        1.0  0.7499994677318693  0.7500001620590853  0.7500006115332112  1.0000
  Au  Au1       1.0  0.9999999915141106  1.9982451918142094e-07  0.9999997533245686  1.0000
  F   F1        1.0  0.27211571922649774  0.2721149938115419  0.7278847527779266  1.0000
  F   F2        1.0  0.7278844895569  0.7278850302373201  0.27211510056016175  1.0000
  F   F3        1.0  0.7278846170023013  0.27211526208998027  0.272115221900813  1.0000
  F   F4        1.0  0.27211533544640454  0.7278846110275798  0.7278848437487782  1.0000
  F   F5        1.0  0.2721154607496938  0.7278847374902188  0.27211499277998313  1.0000
  F   F6        1.0  0.7278844594265356  0.2721152865586233  0.7278848017844983  1.0000
