data_image0
_chemical_formula_structural       Y2BeBr6
_chemical_formula_sum              "Y2 Be1 Br6"
_cell_length_a       6.934554987504067
_cell_length_b       6.934554978641663
_cell_length_c       6.934554648717709
_cell_angle_alpha    60.000000744602936
_cell_angle_beta     60.000000045293234
_cell_angle_gamma    60.00000121516103

_space_group_name_H-M_alt    "P 1"
_space_group_IT_number       1

loop_
  _space_group_symop_operation_xyz
  'x, y, z'

loop_
  _atom_site_type_symbol
  _atom_site_label
  _atom_site_symmetry_multiplicity
  _atom_site_fract_x
  _atom_site_fract_y
  _atom_site_fract_z
  _atom_site_occupancy
  Y   Y1        1.0  0.2500001161571301  0.24999987639318177  0.24999973899204717  1.0000
  Y   Y2        1.0  0.7499998913946357  0.7499998764402205  0.750000308248897  1.0000
  Be  Be1       1.0  1.2816081934284423e-08  2.649221604488656e-08  1.3513085165267908e-08  1.0000
  Br  Br1       1.0  0.24246392826370436  0.24246402244463172  0.7575360377375151  1.0000
  Br  Br2       1.0  0.7575359813245485  0.7575360942152033  0.2424638534991098  1.0000
  Br  Br3       1.0  0.7575360693452136  0.24246401067620557  0.24246394476047523  1.0000
  Br  Br4       1.0  0.24246405139844476  0.7575359770548464  0.7575360019804327  1.0000
  Br  Br5       1.0  0.24246399080106204  0.757536118365037  0.24246401094577244  1.0000
  Br  Br6       1.0  0.7575359682536813  0.24246399476250222  0.757536075073859  1.0000
