data_image0
_chemical_formula_structural       Y2BeF6
_chemical_formula_sum              "Y2 Be1 F6"
_cell_length_a       5.334330134892424
_cell_length_b       5.334330171892196
_cell_length_c       5.334330217707361
_cell_angle_alpha    60.00000109585933
_cell_angle_beta     59.99999895447489
_cell_angle_gamma    60.0000027050994

_space_group_name_H-M_alt    "P 1"
_space_group_IT_number       1

loop_
  _space_group_symop_operation_xyz
  'x, y, z'

loop_
  _atom_site_type_symbol
  _atom_site_label
  _atom_site_symmetry_multiplicity
  _atom_site_fract_x
  _atom_site_fract_y
  _atom_site_fract_z
  _atom_site_occupancy
  Y   Y1        1.0  0.24999995376085146  0.2500003659908727  0.24999976882990677  1.0000
  Y   Y2        1.0  0.7500001465978391  0.7500000601953403  0.7499997708292357  1.0000
  Be  Be1       1.0  0.9999999543020738  0.999999974744356  0.9999999811119467  1.0000
  F   F1        1.0  0.23102862251380096  0.2310286070475563  0.768971443369219  1.0000
  F   F2        1.0  0.7689714702444314  0.7689713094338886  0.23102867175831354  1.0000
  F   F3        1.0  0.7689715273411178  0.23102857678572916  0.23102856206641448  1.0000
  F   F4        1.0  0.2310284156205248  0.7689712111215345  0.7689716735000068  1.0000
  F   F5        1.0  0.23102848308669702  0.7689713485666816  0.23102870607613693  1.0000
  F   F6        1.0  0.7689714086433993  0.23102851510750536  0.7689714459859123  1.0000
