data_image0
_chemical_formula_structural       Y2BeI6
_chemical_formula_sum              "Y2 Be1 I6"
_cell_length_a       7.617162716940383
_cell_length_b       7.617162786139771
_cell_length_c       7.6171626840318885
_cell_angle_alpha    60.000000500719096
_cell_angle_beta     60.00000021456165
_cell_angle_gamma    60.00000015928974

_space_group_name_H-M_alt    "P 1"
_space_group_IT_number       1

loop_
  _space_group_symop_operation_xyz
  'x, y, z'

loop_
  _atom_site_type_symbol
  _atom_site_label
  _atom_site_symmetry_multiplicity
  _atom_site_fract_x
  _atom_site_fract_y
  _atom_site_fract_z
  _atom_site_occupancy
  Y   Y1        1.0  0.25000000568778463  0.2500000104410772  0.24999996303236807  1.0000
  Y   Y2        1.0  0.7499999234283924  0.7500000393626092  0.7500001038749438  1.0000
  Be  Be1       1.0  1.667511431360418e-08  0.0  0.9999999850983189  1.0000
  I   I1        1.0  0.2450605931423326  0.24506050808765412  0.7549394504073045  1.0000
  I   I2        1.0  0.7549394041298194  0.7549394918718947  0.24506052463612688  1.0000
  I   I3        1.0  0.7549394575668325  0.24506057552815178  0.24506053281153478  1.0000
  I   I4        1.0  0.2450605728874133  0.7549394067447676  0.7549394646791345  1.0000
  I   I5        1.0  0.24506059538285171  0.7549394563958282  0.24506052341434933  1.0000
  I   I6        1.0  0.7549394307995034  0.24506051140621257  0.7549394506270849  1.0000
