data_image0
_chemical_formula_structural       Y2BeCl6
_chemical_formula_sum              "Y2 Be1 Cl6"
_cell_length_a       6.5368761264779645
_cell_length_b       6.536876017102679
_cell_length_c       6.5368761770629815
_cell_angle_alpha    60.000002338073664
_cell_angle_beta     59.99999998358954
_cell_angle_gamma    59.99999975463696

_space_group_name_H-M_alt    "P 1"
_space_group_IT_number       1

loop_
  _space_group_symop_operation_xyz
  'x, y, z'

loop_
  _atom_site_type_symbol
  _atom_site_label
  _atom_site_symmetry_multiplicity
  _atom_site_fract_x
  _atom_site_fract_y
  _atom_site_fract_z
  _atom_site_occupancy
  Y   Y1        1.0  0.24999987419901784  0.24999967011256993  0.25000022375991526  1.0000
  Y   Y2        1.0  0.750000045403566  0.749999904041811  0.7500001139901182  1.0000
  Be  Be1       1.0  6.796359152864338e-08  0.9999999868848435  0.9999999404503459  1.0000
  Cl  Cl1       1.0  0.24144848623330684  0.24144848505729136  0.7585515240442092  1.0000
  Cl  Cl2       1.0  0.7585515370808296  0.7585516099560802  0.24144840810382148  1.0000
  Cl  Cl3       1.0  0.7585515291965472  0.24144849751687758  0.24144848975688707  1.0000
  Cl  Cl4       1.0  0.24144843807208874  0.7585516649458612  0.7585514458679078  1.0000
  Cl  Cl5       1.0  0.24144848697904703  0.7585516469630326  0.24144838631563903  1.0000
  Cl  Cl6       1.0  0.7585515320337545  0.24144851924689087  0.7585514710806524  1.0000
