data_image0
_chemical_formula_structural       Y2CaBr6
_chemical_formula_sum              "Y2 Ca1 Br6"
_cell_length_a       7.317325914426022
_cell_length_b       7.317325683028854
_cell_length_c       7.317326122926743
_cell_angle_alpha    59.99999830007776
_cell_angle_beta     59.99999898786798
_cell_angle_gamma    60.00000135773098

_space_group_name_H-M_alt    "P 1"
_space_group_IT_number       1

loop_
  _space_group_symop_operation_xyz
  'x, y, z'

loop_
  _atom_site_type_symbol
  _atom_site_label
  _atom_site_symmetry_multiplicity
  _atom_site_fract_x
  _atom_site_fract_y
  _atom_site_fract_z
  _atom_site_occupancy
  Y   Y1        1.0  0.24999998608388257  0.2499999339943054  0.25000007024067405  1.0000
  Y   Y2        1.0  0.7499999672220082  0.7500000212455085  0.7499999449107905  1.0000
  Ca  Ca1       1.0  0.9999999651410246  0.9999999246807877  6.192219079447567e-08  1.0000
  Br  Br1       1.0  0.26038015145205656  0.26038017035159355  0.7396198514290984  1.0000
  Br  Br2       1.0  0.7396198083874583  0.7396198836400752  0.26038015617806787  1.0000
  Br  Br3       1.0  0.7396198234447754  0.2603801802349279  0.26038019002828805  1.0000
  Br  Br4       1.0  0.2603802249562159  0.7396198637141822  0.7396197796860388  1.0000
  Br  Br5       1.0  0.26038021203754963  0.7396198419344285  0.26038015388027214  1.0000
  Br  Br6       1.0  0.7396198529888954  0.2603801852770796  0.7396198022239343  1.0000
