data_image0
_chemical_formula_structural       Y2CaF6
_chemical_formula_sum              "Y2 Ca1 F6"
_cell_length_a       5.693357017355004
_cell_length_b       5.69335632613737
_cell_length_c       5.693357069344964
_cell_angle_alpha    59.999995699087066
_cell_angle_beta     59.99999457848993
_cell_angle_gamma    59.99999552612864

_space_group_name_H-M_alt    "P 1"
_space_group_IT_number       1

loop_
  _space_group_symop_operation_xyz
  'x, y, z'

loop_
  _atom_site_type_symbol
  _atom_site_label
  _atom_site_symmetry_multiplicity
  _atom_site_fract_x
  _atom_site_fract_y
  _atom_site_fract_z
  _atom_site_occupancy
  Y   Y1        1.0  0.25000090394179175  0.2499998781086648  0.24999986900487006  1.0000
  Y   Y2        1.0  0.7500005682557348  0.7500005464274148  0.7499996238051646  1.0000
  Ca  Ca1       1.0  1.0284182833619186e-07  0.9999999956976366  1.5718282988320974e-08  1.0000
  F   F1        1.0  0.2618351264340002  0.2618351958598415  0.7381645952663414  1.0000
  F   F2        1.0  0.7381647646047959  0.7381650802446066  0.26183486655812677  1.0000
  F   F3        1.0  0.7381643574837843  0.26183458344631216  0.26183557777890093  1.0000
  F   F4        1.0  0.2618348146186946  0.7381648924181886  0.7381649229065674  1.0000
  F   F5        1.0  0.2618348960449087  0.7381651842757245  0.26183511615322547  1.0000
  F   F6        1.0  0.7381644950312501  0.2618346142661817  0.7381654035181299  1.0000
