data_image0
_chemical_formula_structural       Y2CaI6
_chemical_formula_sum              "Y2 Ca1 I6"
_cell_length_a       7.901413901281217
_cell_length_b       7.901414012231124
_cell_length_c       7.9014139203598575
_cell_angle_alpha    60.00000016488071
_cell_angle_beta     60.000000091508255
_cell_angle_gamma    59.999999469839736

_space_group_name_H-M_alt    "P 1"
_space_group_IT_number       1

loop_
  _space_group_symop_operation_xyz
  'x, y, z'

loop_
  _atom_site_type_symbol
  _atom_site_label
  _atom_site_symmetry_multiplicity
  _atom_site_fract_x
  _atom_site_fract_y
  _atom_site_fract_z
  _atom_site_occupancy
  Y   Y1        1.0  0.2499999648576514  0.2500000298166539  0.2500000164702608  1.0000
  Y   Y2        1.0  0.7499999985694027  0.749999974747554  0.7500000547637626  1.0000
  Ca  Ca1       1.0  1.124783821654534e-08  2.3250487849483853e-08  0.999999954907719  1.0000
  I   I1        1.0  0.26115026737111985  0.26115025530706293  0.7388497309263385  1.0000
  I   I2        1.0  0.7388497457582238  0.7388497229065918  0.2611502324465002  1.0000
  I   I3        1.0  0.7388497581531841  0.2611502761995338  0.26115022817880656  1.0000
  I   I4        1.0  0.2611502228839245  0.7388497500651293  0.7388497879632666  1.0000
  I   I5        1.0  0.2611502626704521  0.7388497159137254  0.2611502470574512  1.0000
  I   I6        1.0  0.7388497672280964  0.26115025144970144  0.7388497487925947  1.0000
