data_image0
_chemical_formula_structural       Y2CBr6
_chemical_formula_sum              "Y2 C1 Br6"
_cell_length_a       7.152155587952119
_cell_length_b       7.152155554903212
_cell_length_c       7.1521557959106445
_cell_angle_alpha    60.000000323060476
_cell_angle_beta     60.00000054597029
_cell_angle_gamma    59.999999571383995

_space_group_name_H-M_alt    "P 1"
_space_group_IT_number       1

loop_
  _space_group_symop_operation_xyz
  'x, y, z'

loop_
  _atom_site_type_symbol
  _atom_site_label
  _atom_site_symmetry_multiplicity
  _atom_site_fract_x
  _atom_site_fract_y
  _atom_site_fract_z
  _atom_site_occupancy
  Y   Y1        1.0  0.24999987676953994  0.24999973484504176  0.2500002336001719  1.0000
  Y   Y2        1.0  0.7499998941062128  0.7500000744412468  0.749999694920203  1.0000
  C   C1        1.0  0.9999999920898676  4.794758190039357e-08  0.9999999785830959  1.0000
  Br  Br1       1.0  0.2563362537614238  0.2563362168223101  0.7436637500135207  1.0000
  Br  Br2       1.0  0.7436636983723658  0.7436638236398228  0.25633636937299087  1.0000
  Br  Br3       1.0  0.7436638545462192  0.2563361355522865  0.25633624885959894  1.0000
  Br  Br4       1.0  0.25633638936901393  0.7436638432629524  0.7436636855506492  1.0000
  Br  Br5       1.0  0.25633615971346385  0.743663899743635  0.2563363034058062  1.0000
  Br  Br6       1.0  0.7436638818350032  0.25633622120193844  0.7436637436152669  1.0000
