data_image0
_chemical_formula_structural       Y2CCl6
_chemical_formula_sum              "Y2 C1 Cl6"
_cell_length_a       6.764525603884759
_cell_length_b       6.764525452452188
_cell_length_c       6.764525289774975
_cell_angle_alpha    60.00000084315189
_cell_angle_beta     59.999998988520325
_cell_angle_gamma    59.999999628795706

_space_group_name_H-M_alt    "P 1"
_space_group_IT_number       1

loop_
  _space_group_symop_operation_xyz
  'x, y, z'

loop_
  _atom_site_type_symbol
  _atom_site_label
  _atom_site_symmetry_multiplicity
  _atom_site_fract_x
  _atom_site_fract_y
  _atom_site_fract_z
  _atom_site_occupancy
  Y   Y1        1.0  0.24999986962923937  0.25000023327930987  0.24999975979071984  1.0000
  Y   Y2        1.0  0.7500002675600579  0.7499998760419155  0.7499998630777971  1.0000
  C   C1        1.0  0.9999999874297604  3.2589733017271816e-08  3.2860963278329663e-08  1.0000
  Cl  Cl1       1.0  0.25853573996165435  0.2585357300934746  0.7414642512513843  1.0000
  Cl  Cl2       1.0  0.7414643618837733  0.7414642036053065  0.2585357712820569  1.0000
  Cl  Cl3       1.0  0.7414642960129889  0.25853576608034917  0.2585357159952344  1.0000
  Cl  Cl4       1.0  0.2585356028392144  0.7414641006284272  0.741464479965634  1.0000
  Cl  Cl5       1.0  0.2585356472850518  0.7414642912571558  0.258535856722568  1.0000
  Cl  Cl6       1.0  0.7414642293731789  0.2585357546951495  0.7414642651484235  1.0000
