data_image0
_chemical_formula_structural       Y2CdCl6
_chemical_formula_sum              "Y2 Cd1 Cl6"
_cell_length_a       6.887848566717945
_cell_length_b       6.887848855747035
_cell_length_c       6.887848428983591
_cell_angle_alpha    60.00000015339662
_cell_angle_beta     60.00000106688325
_cell_angle_gamma    59.99999783444983

_space_group_name_H-M_alt    "P 1"
_space_group_IT_number       1

loop_
  _space_group_symop_operation_xyz
  'x, y, z'

loop_
  _atom_site_type_symbol
  _atom_site_label
  _atom_site_symmetry_multiplicity
  _atom_site_fract_x
  _atom_site_fract_y
  _atom_site_fract_z
  _atom_site_occupancy
  Y   Y1        1.0  0.24999997097602306  0.2500000327284774  0.2499998741768852  1.0000
  Y   Y2        1.0  0.7499999969644792  0.7500004093571088  0.7499996775454073  1.0000
  Cd  Cd1       1.0  2.9684749378243016e-08  0.999999996443751  0.9999999912912465  1.0000
  Cl  Cl1       1.0  0.256054825992809  0.25605477298599416  0.7439452689130642  1.0000
  Cl  Cl2       1.0  0.7439452553787644  0.7439451125467924  0.25605491814227216  1.0000
  Cl  Cl3       1.0  0.7439452242610923  0.2560547009235714  0.256054861220593  1.0000
  Cl  Cl4       1.0  0.256054788446587  0.7439450636967941  0.7439452914098381  1.0000
  Cl  Cl5       1.0  0.2560547232867138  0.7439451727285257  0.2560548498968471  1.0000
  Cl  Cl6       1.0  0.7439451774021443  0.2560547519229967  0.7439452685645888  1.0000
