data_image0
_chemical_formula_structural       Y2CdI6
_chemical_formula_sum              "Y2 Cd1 I6"
_cell_length_a       7.846026584100491
_cell_length_b       7.846026539878477
_cell_length_c       7.846026611271539
_cell_angle_alpha    60.000000027193735
_cell_angle_beta     60.00000027238163
_cell_angle_gamma    60.00000036573367

_space_group_name_H-M_alt    "P 1"
_space_group_IT_number       1

loop_
  _space_group_symop_operation_xyz
  'x, y, z'

loop_
  _atom_site_type_symbol
  _atom_site_label
  _atom_site_symmetry_multiplicity
  _atom_site_fract_x
  _atom_site_fract_y
  _atom_site_fract_z
  _atom_site_occupancy
  Y   Y1        1.0  0.24999999313483912  0.2500000222187936  0.24999999423057195  1.0000
  Y   Y2        1.0  0.7500000200484983  0.7499999932905711  0.7499999786601425  1.0000
  Cd  Cd1       1.0  0.999999980095058  0.9999999890731773  4.855367456907668e-08  1.0000
  I   I1        1.0  0.25860999600051077  0.2586100178242184  0.7413900057940358  1.0000
  I   I2        1.0  0.7413900569187545  0.7413899976851466  0.2586099790919767  1.0000
  I   I3        1.0  0.7413900137793881  0.2586099710778178  0.25861000049348254  1.0000
  I   I4        1.0  0.258610003418635  0.7413899882364589  0.7413900048600855  1.0000
  I   I5        1.0  0.2586099782631956  0.7413899918290928  0.25860997197475816  1.0000
  I   I6        1.0  0.7413899594323387  0.2586100205583221  0.7413900198283452  1.0000
