data_image0
_chemical_formula_structural       Y2CdF6
_chemical_formula_sum              "Y2 Cd1 F6"
_cell_length_a       5.793880057975208
_cell_length_b       5.79387956378718
_cell_length_c       5.793880041718689
_cell_angle_alpha    59.99999970608926
_cell_angle_beta     59.99999851943808
_cell_angle_gamma    60.00000052871783

_space_group_name_H-M_alt    "P 1"
_space_group_IT_number       1

loop_
  _space_group_symop_operation_xyz
  'x, y, z'

loop_
  _atom_site_type_symbol
  _atom_site_label
  _atom_site_symmetry_multiplicity
  _atom_site_fract_x
  _atom_site_fract_y
  _atom_site_fract_z
  _atom_site_occupancy
  Y   Y1        1.0  0.24999851694903147  0.2500008732383153  0.2499999888091225  1.0000
  Y   Y2        1.0  0.7499990634628744  0.7500000577170503  0.7500000158099037  1.0000
  Cd  Cd1       1.0  0.9999998472047614  6.975736608211608e-08  1.8218799486838697e-09  1.0000
  F   F1        1.0  0.2632964642544749  0.26329561802705875  0.7367040051516353  1.0000
  F   F2        1.0  0.7367050654330465  0.7367028101184984  0.2632958854979576  1.0000
  F   F3        1.0  0.7367045421816681  0.2632962292856205  0.26329583984796145  1.0000
  F   F4        1.0  0.26329657976916154  0.7367036193737  0.7367043797773328  1.0000
  F   F5        1.0  0.26329593799806245  0.7367043116352996  0.26329624973013344  1.0000
  F   F6        1.0  0.7367040956582607  0.2632963804540151  0.7367036850010974  1.0000
