data_image0
_chemical_formula_structural       Y2CdBr6
_chemical_formula_sum              "Y2 Cd1 Br6"
_cell_length_a       7.221769576254674
_cell_length_b       7.22176950312847
_cell_length_c       7.221769424036727
_cell_angle_alpha    60.00000025036338
_cell_angle_beta     59.999999513405335
_cell_angle_gamma    59.999999837959905

_space_group_name_H-M_alt    "P 1"
_space_group_IT_number       1

loop_
  _space_group_symop_operation_xyz
  'x, y, z'

loop_
  _atom_site_type_symbol
  _atom_site_label
  _atom_site_symmetry_multiplicity
  _atom_site_fract_x
  _atom_site_fract_y
  _atom_site_fract_z
  _atom_site_occupancy
  Y   Y1        1.0  0.2500000484315049  0.250000016773886  0.2499999452838164  1.0000
  Y   Y2        1.0  0.7499999854195207  0.7500000214912409  0.7499999440511782  1.0000
  Cd  Cd1       1.0  2.1448205217839887e-08  0.9999999932163725  5.130030766465041e-09  1.0000
  Br  Br1       1.0  0.25838209507555715  0.2583820890745147  0.7416179034510386  1.0000
  Br  Br2       1.0  0.74161787869558  0.7416179135765676  0.25838211542835293  1.0000
  Br  Br3       1.0  0.7416178213221425  0.2583820982639607  0.2583821539137597  1.0000
  Br  Br4       1.0  0.25838214295248685  0.741617899299401  0.74161789995179  1.0000
  Br  Br5       1.0  0.2583821019447176  0.741617862136748  0.25838215912071205  1.0000
  Br  Br6       1.0  0.7416179014798285  0.25838209472484835  0.741617885827846  1.0000
