data_image0
_chemical_formula_structural       Y2CF6
_chemical_formula_sum              "Y2 C1 F6"
_cell_length_a       5.341915280369879
_cell_length_b       5.341915668345398
_cell_length_c       5.341916140075009
_cell_angle_alpha    60.00000170176347
_cell_angle_beta     60.00000167037065
_cell_angle_gamma    60.00000149195471

_space_group_name_H-M_alt    "P 1"
_space_group_IT_number       1

loop_
  _space_group_symop_operation_xyz
  'x, y, z'

loop_
  _atom_site_type_symbol
  _atom_site_label
  _atom_site_symmetry_multiplicity
  _atom_site_fract_x
  _atom_site_fract_y
  _atom_site_fract_z
  _atom_site_occupancy
  Y   Y1        1.0  0.24999983536270798  0.2500004451060926  0.2499998012120336  1.0000
  Y   Y2        1.0  0.7499999409646252  0.7499997648138554  0.7500000893852392  1.0000
  C   C1        1.0  1.3887364929081934e-08  0.9999999518531487  7.769804935564037e-09  1.0000
  F   F1        1.0  0.2654951118325559  0.26549493305464966  0.7345049577959505  1.0000
  F   F2        1.0  0.7345049753324168  0.7345049214956866  0.2654951422660579  1.0000
  F   F3        1.0  0.7345050243906294  0.2654948972843016  0.2654951161573911  1.0000
  F   F4        1.0  0.26549504659427214  0.734505012291008  0.734504992561979  1.0000
  F   F5        1.0  0.26549514934922314  0.7345049680091967  0.265494929415591  1.0000
  F   F6        1.0  0.7345049507402608  0.26549496449318055  0.7345050054009474  1.0000
