data_image0
_chemical_formula_structural       Y2CI6
_chemical_formula_sum              "Y2 C1 I6"
_cell_length_a       7.658200566463277
_cell_length_b       7.658200673684919
_cell_length_c       7.658200534254544
_cell_angle_alpha    59.999999668454876
_cell_angle_beta     59.999999615090466
_cell_angle_gamma    59.999999729791824

_space_group_name_H-M_alt    "P 1"
_space_group_IT_number       1

loop_
  _space_group_symop_operation_xyz
  'x, y, z'

loop_
  _atom_site_type_symbol
  _atom_site_label
  _atom_site_symmetry_multiplicity
  _atom_site_fract_x
  _atom_site_fract_y
  _atom_site_fract_z
  _atom_site_occupancy
  Y   Y1        1.0  0.2500000150727411  0.24999998972217308  0.24999999914060117  1.0000
  Y   Y2        1.0  0.7500000101416741  0.7500000427324487  0.749999871102351  1.0000
  C   C1        1.0  0.9999999937701965  3.678296435510485e-08  0.9999999677481521  1.0000
  I   I1        1.0  0.25390257676443156  0.25390258274260674  0.7460974208108698  1.0000
  I   I2        1.0  0.7460973997902678  0.7460973921386789  0.2539026305160076  1.0000
  I   I3        1.0  0.7460974051868822  0.25390258814137995  0.253902611112216  1.0000
  I   I4        1.0  0.25390260551404265  0.7460973883391648  0.7460974249534985  1.0000
  I   I5        1.0  0.2539025803526389  0.7460974037697017  0.2539026285545758  1.0000
  I   I6        1.0  0.7460974142956144  0.25390257111158354  0.7460974463702692  1.0000
