data_image0
_chemical_formula_structural       Y2CoBr6
_chemical_formula_sum              "Y2 Co1 Br6"
_cell_length_a       6.966072483886372
_cell_length_b       6.966072358790371
_cell_length_c       6.966072456857108
_cell_angle_alpha    59.99999982436452
_cell_angle_beta     59.99999893744357
_cell_angle_gamma    60.000000282558275

_space_group_name_H-M_alt    "P 1"
_space_group_IT_number       1

loop_
  _space_group_symop_operation_xyz
  'x, y, z'

loop_
  _atom_site_type_symbol
  _atom_site_label
  _atom_site_symmetry_multiplicity
  _atom_site_fract_x
  _atom_site_fract_y
  _atom_site_fract_z
  _atom_site_occupancy
  Y   Y1        1.0  0.2499998566103801  0.24999992606636764  0.2500001459444437  1.0000
  Y   Y2        1.0  0.7500000639269486  0.7500000612623796  0.7499999028298125  1.0000
  Co  Co1       1.0  0.999999977279013  3.516314136225071e-09  6.128138564932286e-08  1.0000
  Br  Br1       1.0  0.24569449065227308  0.24569447775846462  0.7543055533323461  1.0000
  Br  Br2       1.0  0.7543055408268737  0.7543055447334234  0.24569444679342514  1.0000
  Br  Br3       1.0  0.7543056142225896  0.24569443493489443  0.24569444940652044  1.0000
  Br  Br4       1.0  0.24569445384169866  0.7543055523938537  0.754305471054147  1.0000
  Br  Br5       1.0  0.24569444535892032  0.7543055712886978  0.2456945029356629  1.0000
  Br  Br6       1.0  0.7543055517126981  0.2456944301053058  0.7543054689571788  1.0000
