data_image0
_chemical_formula_structural       Y2CoCl6
_chemical_formula_sum              "Y2 Co1 Cl6"
_cell_length_a       6.6274626136977055
_cell_length_b       6.62746245601594
_cell_length_c       6.627462542114393
_cell_angle_alpha    60.000000335814
_cell_angle_beta     60.00000240524077
_cell_angle_gamma    60.00000291663809

_space_group_name_H-M_alt    "P 1"
_space_group_IT_number       1

loop_
  _space_group_symop_operation_xyz
  'x, y, z'

loop_
  _atom_site_type_symbol
  _atom_site_label
  _atom_site_symmetry_multiplicity
  _atom_site_fract_x
  _atom_site_fract_y
  _atom_site_fract_z
  _atom_site_occupancy
  Y   Y1        1.0  0.24999997598092863  0.25000006184310103  0.24999984591903204  1.0000
  Y   Y2        1.0  0.7500000535632452  0.750000237272876  0.749999464163813  1.0000
  Co  Co1       1.0  0.999999974357729  3.5111706887543684e-08  1.2050174975981552e-07  1.0000
  Cl  Cl1       1.0  0.24473857432362897  0.24473848776337  0.7552615462672636  1.0000
  Cl  Cl2       1.0  0.7552615130758907  0.7552613659883188  0.2447386803202695  1.0000
  Cl  Cl3       1.0  0.7552615076030454  0.24473838511792115  0.2447386825629591  1.0000
  Cl  Cl4       1.0  0.24473859583047086  0.75526138917043  0.7552615123665738  1.0000
  Cl  Cl5       1.0  0.24473835360577137  0.7552614256502825  0.24473866795718927  1.0000
  Cl  Cl6       1.0  0.7552614404688285  0.24473861289985802  0.7552614801127409  1.0000
