data_image0
_chemical_formula_structural       Y2CoF6
_chemical_formula_sum              "Y2 Co1 F6"
_cell_length_a       5.292275578252782
_cell_length_b       5.292274864225362
_cell_length_c       5.292275294693263
_cell_angle_alpha    59.99999975738161
_cell_angle_beta     59.99999995328654
_cell_angle_gamma    60.00000222631127

_space_group_name_H-M_alt    "P 1"
_space_group_IT_number       1

loop_
  _space_group_symop_operation_xyz
  'x, y, z'

loop_
  _atom_site_type_symbol
  _atom_site_label
  _atom_site_symmetry_multiplicity
  _atom_site_fract_x
  _atom_site_fract_y
  _atom_site_fract_z
  _atom_site_occupancy
  Y   Y1        1.0  0.2500002073212499  0.24999999777694001  0.2500000484147218  1.0000
  Y   Y2        1.0  0.7500001719938769  0.7499999817597129  0.7499997694702505  1.0000
  Co  Co1       1.0  3.695927094487722e-08  6.942639018788756e-09  0.9999999648222195  1.0000
  F   F1        1.0  0.2535847361743086  0.25358505445679796  0.7464149254960486  1.0000
  F   F2        1.0  0.7464151805183423  0.7464150431046694  0.2535850665773093  1.0000
  F   F3        1.0  0.7464149179826246  0.2535848702145644  0.2535849590024018  1.0000
  F   F4        1.0  0.2535849934237385  0.7464150468383259  0.7464151089624675  1.0000
  F   F5        1.0  0.25358489045775245  0.7464150228310837  0.253584946361766  1.0000
  F   F6        1.0  0.7464149778408133  0.2535848664512568  0.7464152345136815  1.0000
