data_image0
_chemical_formula_structural       Y2CoI6
_chemical_formula_sum              "Y2 Co1 I6"
_cell_length_a       7.630593393933622
_cell_length_b       7.630593329321594
_cell_length_c       7.630593389690631
_cell_angle_alpha    59.99999924491183
_cell_angle_beta     60.000000112884265
_cell_angle_gamma    59.999999728850405

_space_group_name_H-M_alt    "P 1"
_space_group_IT_number       1

loop_
  _space_group_symop_operation_xyz
  'x, y, z'

loop_
  _atom_site_type_symbol
  _atom_site_label
  _atom_site_symmetry_multiplicity
  _atom_site_fract_x
  _atom_site_fract_y
  _atom_site_fract_z
  _atom_site_occupancy
  Y   Y1        1.0  0.24999999802297626  0.25000002381669806  0.24999997327587078  1.0000
  Y   Y2        1.0  0.7500000143077097  0.7500000152735048  0.7499999391070307  1.0000
  Co  Co1       1.0  1.7196529034769614e-08  0.9999999711091824  5.302565096094378e-08  1.0000
  I   I1        1.0  0.24643251935093444  0.24643251207332376  0.7535674888275733  1.0000
  I   I2        1.0  0.7535674828617127  0.7535674756554255  0.2464325224418066  1.0000
  I   I3        1.0  0.7535675005637094  0.2464325181008288  0.2464325361090752  1.0000
  I   I4        1.0  0.24643253948022042  0.7535674696279203  0.7535674627972337  1.0000
  I   I5        1.0  0.2464324876870451  0.7535674919059818  0.24643252324989445  1.0000
  I   I6        1.0  0.7535674423170111  0.2464325263186301  0.7535674983917365  1.0000
