data_image0
_chemical_formula_structural       Y2CrI6
_chemical_formula_sum              "Y2 Cr1 I6"
_cell_length_a       7.764739811837963
_cell_length_b       7.764739784624295
_cell_length_c       7.764739752254371
_cell_angle_alpha    59.99999958740268
_cell_angle_beta     59.99999995138284
_cell_angle_gamma    60.00000018704423

_space_group_name_H-M_alt    "P 1"
_space_group_IT_number       1

loop_
  _space_group_symop_operation_xyz
  'x, y, z'

loop_
  _atom_site_type_symbol
  _atom_site_label
  _atom_site_symmetry_multiplicity
  _atom_site_fract_x
  _atom_site_fract_y
  _atom_site_fract_z
  _atom_site_occupancy
  Y   Y1        1.0  0.2500000423928145  0.2500000103897084  0.24999997893531303  1.0000
  Y   Y2        1.0  0.7499999127514692  0.7499999160250527  0.7499999663647808  1.0000
  Cr  Cr1       1.0  4.5360544883334794e-09  2.208242488596923e-08  0.9999999789635212  1.0000
  I   I1        1.0  0.24827395065442176  0.24827399030164465  0.751726034070564  1.0000
  I   I2        1.0  0.7517260370695943  0.7517260212881827  0.24827402879075441  1.0000
  I   I3        1.0  0.7517260241637983  0.24827396108322658  0.24827398615993132  1.0000
  I   I4        1.0  0.24827402366051102  0.7517260441973371  0.7517259931394527  1.0000
  I   I5        1.0  0.2482739882287594  0.7517260167947792  0.2482740088126115  1.0000
  I   I6        1.0  0.7517260143508577  0.2482740216094212  0.7517260267743537  1.0000
