data_image0
_chemical_formula_structural       Y2CrBr6
_chemical_formula_sum              "Y2 Cr1 Br6"
_cell_length_a       7.072507775266061
_cell_length_b       7.072507786019719
_cell_length_c       7.072508354661205
_cell_angle_alpha    59.99999892728256
_cell_angle_beta     59.999998767850514
_cell_angle_gamma    60.00000258590041

_space_group_name_H-M_alt    "P 1"
_space_group_IT_number       1

loop_
  _space_group_symop_operation_xyz
  'x, y, z'

loop_
  _atom_site_type_symbol
  _atom_site_label
  _atom_site_symmetry_multiplicity
  _atom_site_fract_x
  _atom_site_fract_y
  _atom_site_fract_z
  _atom_site_occupancy
  Y   Y1        1.0  0.25000008973629895  0.24999998448827362  0.24999995350245088  1.0000
  Y   Y2        1.0  0.7499999445385701  0.7500000556350017  0.7500001159778255  1.0000
  Cr  Cr1       1.0  6.584967829261649e-08  5.714604193407971e-08  0.9999999653667261  1.0000
  Br  Br1       1.0  0.24193866349870266  0.24193862030586216  0.7580613531449468  1.0000
  Br  Br2       1.0  0.7580612048899721  0.7580613003302328  0.24193874166619628  1.0000
  Br  Br3       1.0  0.7580613109559722  0.24193869876793753  0.24193864367181747  1.0000
  Br  Br4       1.0  0.2419387602617846  0.7580612305266551  0.7580612817688898  1.0000
  Br  Br5       1.0  0.2419386771489442  0.7580613245622545  0.24193864527601147  1.0000
  Br  Br6       1.0  0.7580612712541855  0.2419387380730918  0.7580612989383665  1.0000
