data_image0
_chemical_formula_structural       Y2CrF6
_chemical_formula_sum              "Y2 Cr1 F6"
_cell_length_a       5.587505570946151
_cell_length_b       5.587504653224029
_cell_length_c       5.5875043986450175
_cell_angle_alpha    59.99999948389304
_cell_angle_beta     59.99999036385288
_cell_angle_gamma    59.99998290452906

_space_group_name_H-M_alt    "P 1"
_space_group_IT_number       1

loop_
  _space_group_symop_operation_xyz
  'x, y, z'

loop_
  _atom_site_type_symbol
  _atom_site_label
  _atom_site_symmetry_multiplicity
  _atom_site_fract_x
  _atom_site_fract_y
  _atom_site_fract_z
  _atom_site_occupancy
  Y   Y1        1.0  0.2500018075106503  0.2499988969340027  0.24999993311438287  1.0000
  Y   Y2        1.0  0.7499981786319204  0.749999538127154  0.750001551994222  1.0000
  Cr  Cr1       1.0  2.6559284787089497e-07  0.9999996186032133  4.981700517408263e-07  1.0000
  F   F1        1.0  0.2610211186651469  0.261021196287042  0.7389780365008342  1.0000
  F   F2        1.0  0.7389776663406286  0.7389795030434926  0.2610203595492012  1.0000
  F   F3        1.0  0.7389781658412696  0.26102266430540944  0.2610195979856631  1.0000
  F   F4        1.0  0.2610220182505258  0.7389784317652965  0.7389792979128585  1.0000
  F   F5        1.0  0.2610221570934763  0.7389787569232258  0.2610206913923415  1.0000
  F   F6        1.0  0.7389786022733245  0.2610214316861921  0.7389800153406979  1.0000
