data_image0
_chemical_formula_structural       Y2CuI6
_chemical_formula_sum              "Y2 Cu1 I6"
_cell_length_a       7.622684222296911
_cell_length_b       7.6226842223066305
_cell_length_c       7.622684191918068
_cell_angle_alpha    60.00000021177093
_cell_angle_beta     60.00000033350908
_cell_angle_gamma    60.00000036121123

_space_group_name_H-M_alt    "P 1"
_space_group_IT_number       1

loop_
  _space_group_symop_operation_xyz
  'x, y, z'

loop_
  _atom_site_type_symbol
  _atom_site_label
  _atom_site_symmetry_multiplicity
  _atom_site_fract_x
  _atom_site_fract_y
  _atom_site_fract_z
  _atom_site_occupancy
  Y   Y1        1.0  0.2500000636447976  0.24999994030462955  0.25000000171115133  1.0000
  Y   Y2        1.0  0.7499999027768877  0.7500001036949799  0.7500000117572821  1.0000
  Cu  Cu1       1.0  0.9999999946442975  1.6067107480747216e-08  0.9999999762780637  1.0000
  I   I1        1.0  0.2526289773152291  0.25262887907187065  0.7473710812755284  1.0000
  I   I2        1.0  0.747371042784197  0.7473711038727303  0.2526289240746744  1.0000
  I   I3        1.0  0.7473710466693153  0.2526289331779279  0.2526289128884062  1.0000
  I   I4        1.0  0.2526289323461538  0.7473710594069375  0.7473710898174092  1.0000
  I   I5        1.0  0.2526289537349463  0.7473710513023235  0.2526289129567934  1.0000
  I   I6        1.0  0.7473710838387534  0.2526289155751701  0.7473710916898263  1.0000
