data_image0
_chemical_formula_structural       Y2CuCl6
_chemical_formula_sum              "Y2 Cu1 Cl6"
_cell_length_a       6.6090050746525115
_cell_length_b       6.609005009128342
_cell_length_c       6.609005206314811
_cell_angle_alpha    59.99999884599043
_cell_angle_beta     59.99999930034847
_cell_angle_gamma    59.9999995007977

_space_group_name_H-M_alt    "P 1"
_space_group_IT_number       1

loop_
  _space_group_symop_operation_xyz
  'x, y, z'

loop_
  _atom_site_type_symbol
  _atom_site_label
  _atom_site_symmetry_multiplicity
  _atom_site_fract_x
  _atom_site_fract_y
  _atom_site_fract_z
  _atom_site_occupancy
  Y   Y1        1.0  0.24999988884089674  0.24999998124040004  0.2500000943509447  1.0000
  Y   Y2        1.0  0.7500000425652441  0.7500001364483492  0.7499997944012347  1.0000
  Cu  Cu1       1.0  1.844365693979304e-08  0.9999999184615916  2.3981940706107884e-08  1.0000
  Cl  Cl1       1.0  0.2532971905855423  0.25329709897160585  0.7467028447898383  1.0000
  Cl  Cl2       1.0  0.7467029518760567  0.7467029149409877  0.253297150709914  1.0000
  Cl  Cl3       1.0  0.7467028968306775  0.253297001335637  0.25329722211799505  1.0000
  Cl  Cl4       1.0  0.253297111683881  0.7467028902693433  0.7467028984829104  1.0000
  Cl  Cl5       1.0  0.25329702586467473  0.7467029281907948  0.2532971059430618  1.0000
  Cl  Cl6       1.0  0.7467028718700154  0.25329712278471095  0.7467028753679013  1.0000
