data_image0
_chemical_formula_structural       Y2CuF6
_chemical_formula_sum              "Y2 Cu1 F6"
_cell_length_a       5.349913037801374
_cell_length_b       5.349913141853804
_cell_length_c       5.349913129319492
_cell_angle_alpha    59.999999919294275
_cell_angle_beta     60.00000164223317
_cell_angle_gamma    60.000001517489984

_space_group_name_H-M_alt    "P 1"
_space_group_IT_number       1

loop_
  _space_group_symop_operation_xyz
  'x, y, z'

loop_
  _atom_site_type_symbol
  _atom_site_label
  _atom_site_symmetry_multiplicity
  _atom_site_fract_x
  _atom_site_fract_y
  _atom_site_fract_z
  _atom_site_occupancy
  Y   Y1        1.0  0.25000025194277625  0.24999993115204655  0.24999994136165754  1.0000
  Y   Y2        1.0  0.7499999750388617  0.7500004069831482  0.7499997862188883  1.0000
  Cu  Cu1       1.0  4.046255559670753e-08  6.638911768121575e-08  0.9999999615276778  1.0000
  F   F1        1.0  0.2619136286622364  0.26191352200761125  0.7380864456725784  1.0000
  F   F2        1.0  0.7380863159716843  0.7380865688853495  0.26191360090942634  1.0000
  F   F3        1.0  0.7380862676612413  0.2619134311774473  0.26191370986458656  1.0000
  F   F4        1.0  0.26191360084690485  0.7380863506627255  0.7380864694926431  1.0000
  F   F5        1.0  0.2619134370978902  0.7380864928466637  0.2619135371971214  1.0000
  F   F6        1.0  0.7380864159539232  0.2619132317615126  0.7380865270999452  1.0000
