data_image0
_chemical_formula_structural       Y2CuBr6
_chemical_formula_sum              "Y2 Cu1 Br6"
_cell_length_a       6.976680242952743
_cell_length_b       6.976680195734183
_cell_length_c       6.9766803252067
_cell_angle_alpha    59.99999918958278
_cell_angle_beta     59.99999881079504
_cell_angle_gamma    59.99999937501285

_space_group_name_H-M_alt    "P 1"
_space_group_IT_number       1

loop_
  _space_group_symop_operation_xyz
  'x, y, z'

loop_
  _atom_site_type_symbol
  _atom_site_label
  _atom_site_symmetry_multiplicity
  _atom_site_fract_x
  _atom_site_fract_y
  _atom_site_fract_z
  _atom_site_occupancy
  Y   Y1        1.0  0.2500001180542308  0.24999987077408217  0.25000002196489646  1.0000
  Y   Y2        1.0  0.7500000777889209  0.7500000740144763  0.7500000821697917  1.0000
  Cu  Cu1       1.0  0.9999999826976351  0.9999999526019383  0.9999999692829695  1.0000
  Br  Br1       1.0  0.2527778627883143  0.2527778785878436  0.7472221209300306  1.0000
  Br  Br2       1.0  0.7472221139466547  0.7472221574858702  0.2527778378475902  1.0000
  Br  Br3       1.0  0.7472220707048078  0.2527779298075578  0.2527778283220585  1.0000
  Br  Br4       1.0  0.25277782616721856  0.747222157175185  0.7472221262990155  1.0000
  Br  Br5       1.0  0.2527778457778225  0.7472221251848298  0.25277786541581176  1.0000
  Br  Br6       1.0  0.7472220944793085  0.2527778564688873  0.7472221517108448  1.0000
