data_image0
_chemical_formula_structural       Y2FeI6
_chemical_formula_sum              "Y2 Fe1 I6"
_cell_length_a       7.648081741230882
_cell_length_b       7.648081897513504
_cell_length_c       7.648081887871799
_cell_angle_alpha    60.00000053562852
_cell_angle_beta     59.99999938750164
_cell_angle_gamma    59.99999881092515

_space_group_name_H-M_alt    "P 1"
_space_group_IT_number       1

loop_
  _space_group_symop_operation_xyz
  'x, y, z'

loop_
  _atom_site_type_symbol
  _atom_site_label
  _atom_site_symmetry_multiplicity
  _atom_site_fract_x
  _atom_site_fract_y
  _atom_site_fract_z
  _atom_site_occupancy
  Y   Y1        1.0  0.24999998293181486  0.24999980664812457  0.250000169738074  1.0000
  Y   Y2        1.0  0.7500001827735427  0.7499999499995592  0.7499999140722493  1.0000
  Fe  Fe1       1.0  1.4030327149224465e-08  3.2027502675349903e-09  1.6226291545618833e-08  1.0000
  I   I1        1.0  0.24648599988451025  0.2464861873095683  0.753513922024542  1.0000
  I   I2        1.0  0.7535138939457624  0.7535139184379139  0.24648608394790408  1.0000
  I   I3        1.0  0.7535139912410753  0.24648606088212258  0.2464860604744375  1.0000
  I   I4        1.0  0.24648601824916114  0.7535139968241014  0.7535138633105128  1.0000
  I   I5        1.0  0.24648594873562416  0.7535139876213044  0.24648611755182118  1.0000
  I   I6        1.0  0.7535139713106022  0.2464860893014236  0.7535138557295735  1.0000
