data_image0
_chemical_formula_structural       Y2FeF6
_chemical_formula_sum              "Y2 Fe1 F6"
_cell_length_a       5.400571169950663
_cell_length_b       5.40057082862193
_cell_length_c       5.4005711195311905
_cell_angle_alpha    59.99999736019584
_cell_angle_beta     59.9999970259083
_cell_angle_gamma    59.999997631506034

_space_group_name_H-M_alt    "P 1"
_space_group_IT_number       1

loop_
  _space_group_symop_operation_xyz
  'x, y, z'

loop_
  _atom_site_type_symbol
  _atom_site_label
  _atom_site_symmetry_multiplicity
  _atom_site_fract_x
  _atom_site_fract_y
  _atom_site_fract_z
  _atom_site_occupancy
  Y   Y1        1.0  0.25000011406166867  0.2499999758304049  0.24999996393867185  1.0000
  Y   Y2        1.0  0.749999947690995  0.750000059023984  0.75000013254435  1.0000
  Fe  Fe1       1.0  2.025830572671983e-08  0.9999999841253553  1.5114811189833624e-09  1.0000
  F   F1        1.0  0.2603607259593283  0.2603606322077151  0.7396392924872413  1.0000
  F   F2        1.0  0.7396393533095565  0.7396393436837069  0.26036059696546365  1.0000
  F   F3        1.0  0.7396392656395819  0.26036063197331205  0.26036064656224084  1.0000
  F   F4        1.0  0.2603606444371016  0.7396393960776562  0.7396393254783235  1.0000
  F   F5        1.0  0.2603607297213882  0.739639476434331  0.2603606436520573  1.0000
  F   F6        1.0  0.7396392407633702  0.260360485850252  0.7396393866173417  1.0000
