data_image0
_chemical_formula_structural       Y2FeCl6
_chemical_formula_sum              "Y2 Fe1 Cl6"
_cell_length_a       6.625492767383954
_cell_length_b       6.625492846314972
_cell_length_c       6.6254924180748285
_cell_angle_alpha    59.99999774398615
_cell_angle_beta     59.99999888576793
_cell_angle_gamma    59.99999675588419

_space_group_name_H-M_alt    "P 1"
_space_group_IT_number       1

loop_
  _space_group_symop_operation_xyz
  'x, y, z'

loop_
  _atom_site_type_symbol
  _atom_site_label
  _atom_site_symmetry_multiplicity
  _atom_site_fract_x
  _atom_site_fract_y
  _atom_site_fract_z
  _atom_site_occupancy
  Y   Y1        1.0  0.24999973378943313  0.24999999434622897  0.25000000766652314  1.0000
  Y   Y2        1.0  0.7499999966535152  0.750000075465352  0.7500000379774293  1.0000
  Fe  Fe1       1.0  0.9999998684250001  7.578987893235319e-08  5.425712872830702e-07  1.0000
  Cl  Cl1       1.0  0.23924864562488832  0.23924870145297894  0.7607513483528354  1.0000
  Cl  Cl2       1.0  0.7607514616526144  0.7607514090263384  0.23924857608062533  1.0000
  Cl  Cl3       1.0  0.7607515519534033  0.23924844395056913  0.23924849248771737  1.0000
  Cl  Cl4       1.0  0.2392488613469288  0.7607511249082799  0.7607511859980255  1.0000
  Cl  Cl5       1.0  0.2392485009301268  0.7607514983232979  0.23924853154871206  1.0000
  Cl  Cl6       1.0  0.7607513762595715  0.23924867500619043  0.7607512787824152  1.0000
