data_image0
_chemical_formula_structural       Y2GeBr6
_chemical_formula_sum              "Y2 Ge1 Br6"
_cell_length_a       7.329369649252693
_cell_length_b       7.329369621998658
_cell_length_c       7.329369691144461
_cell_angle_alpha    60.000001412644984
_cell_angle_beta     60.00000006226206
_cell_angle_gamma    60.00000136885403

_space_group_name_H-M_alt    "P 1"
_space_group_IT_number       1

loop_
  _space_group_symop_operation_xyz
  'x, y, z'

loop_
  _atom_site_type_symbol
  _atom_site_label
  _atom_site_symmetry_multiplicity
  _atom_site_fract_x
  _atom_site_fract_y
  _atom_site_fract_z
  _atom_site_occupancy
  Y   Y1        1.0  0.24999978790851868  0.25000025255729474  0.2500000018415751  1.0000
  Y   Y2        1.0  0.7500001447579504  0.750000144411291  0.749999832954521  1.0000
  Ge  Ge1       1.0  1.3621985209710318e-08  1.671010192829591e-09  7.3616141807363725e-09  1.0000
  Br  Br1       1.0  0.25849912609788833  0.25849911303499296  0.7415008554859945  1.0000
  Br  Br2       1.0  0.7415009415081241  0.7415007893146918  0.25849914823478387  1.0000
  Br  Br3       1.0  0.7415009248978797  0.2584990405967178  0.258499163739428  1.0000
  Br  Br4       1.0  0.2584991130150343  0.7415007665054087  0.741500954297882  1.0000
  Br  Br5       1.0  0.2584990697186686  0.741500807650833  0.25849919135028293  1.0000
  Br  Br6       1.0  0.7415008853947053  0.2584990729757227  0.7415008440046599  1.0000
