data_image0
_chemical_formula_structural       Y2GeF6
_chemical_formula_sum              "Y2 Ge1 F6"
_cell_length_a       5.778133863025426
_cell_length_b       5.7781287940924235
_cell_length_c       5.7781391154789805
_cell_angle_alpha    59.99993615823969
_cell_angle_beta     59.999968552201935
_cell_angle_gamma    59.99991305792383

_space_group_name_H-M_alt    "P 1"
_space_group_IT_number       1

loop_
  _space_group_symop_operation_xyz
  'x, y, z'

loop_
  _atom_site_type_symbol
  _atom_site_label
  _atom_site_symmetry_multiplicity
  _atom_site_fract_x
  _atom_site_fract_y
  _atom_site_fract_z
  _atom_site_occupancy
  Y   Y1        1.0  0.2500037756053607  0.24997208368385  0.2500049496113586  1.0000
  Y   Y2        1.0  0.7500056004499421  0.750024059365693  0.7499745189171702  1.0000
  Ge  Ge1       1.0  7.578777157426127e-07  0.9999999745642705  0.9999983877030824  1.0000
  F   F1        1.0  0.2626361115232503  0.26262231753889775  0.7373753066868168  1.0000
  F   F2        1.0  0.7373613795895466  0.7373809432111611  0.2626352328992546  1.0000
  F   F3        1.0  0.7373749864360746  0.2626134170221499  0.26264462767246094  1.0000
  F   F4        1.0  0.26262412595720336  0.7373811129967228  0.73736055892711  1.0000
  F   F5        1.0  0.26262017329149695  0.7373876730200409  0.26263783626188303  1.0000
  F   F6        1.0  0.7373730947903795  0.2626185446073197  0.7373686203497194  1.0000
