data_image0
_chemical_formula_structural       Y2GeCl6
_chemical_formula_sum              "Y2 Ge1 Cl6"
_cell_length_a       7.033108046789924
_cell_length_b       7.033107991545951
_cell_length_c       7.033108223858534
_cell_angle_alpha    59.99999846695882
_cell_angle_beta     60.00000041561178
_cell_angle_gamma    60.00000060246078

_space_group_name_H-M_alt    "P 1"
_space_group_IT_number       1

loop_
  _space_group_symop_operation_xyz
  'x, y, z'

loop_
  _atom_site_type_symbol
  _atom_site_label
  _atom_site_symmetry_multiplicity
  _atom_site_fract_x
  _atom_site_fract_y
  _atom_site_fract_z
  _atom_site_occupancy
  Y   Y1        1.0  0.2500001247510938  0.2500000344178178  0.24999975815563014  1.0000
  Y   Y2        1.0  0.7499999430043632  0.7500001607196196  0.7499996547293801  1.0000
  Ge  Ge1       1.0  1.1171122434099957e-07  0.9999998815848495  4.427025192921597e-07  1.0000
  Cl  Cl1       1.0  0.25703724358028707  0.2570372991283645  0.7429627652129268  1.0000
  Cl  Cl2       1.0  0.7429626838790494  0.7429626765927602  0.2570375370296811  1.0000
  Cl  Cl3       1.0  0.7429627492223891  0.2570370864635895  0.2570374152700211  1.0000
  Cl  Cl4       1.0  0.2570375224759604  0.7429624869943198  0.7429626700052556  1.0000
  Cl  Cl5       1.0  0.25703720506332195  0.7429628347681755  0.2570372131534154  1.0000
  Cl  Cl6       1.0  0.7429623989200127  0.25703754495757125  0.7429625398038469  1.0000
