data_image0
_chemical_formula_structural       Y2GeI6
_chemical_formula_sum              "Y2 Ge1 I6"
_cell_length_a       7.870328259493004
_cell_length_b       7.870328349014543
_cell_length_c       7.870328227925922
_cell_angle_alpha    59.99999986180911
_cell_angle_beta     59.99999984725993
_cell_angle_gamma    59.999999908284494

_space_group_name_H-M_alt    "P 1"
_space_group_IT_number       1

loop_
  _space_group_symop_operation_xyz
  'x, y, z'

loop_
  _atom_site_type_symbol
  _atom_site_label
  _atom_site_symmetry_multiplicity
  _atom_site_fract_x
  _atom_site_fract_y
  _atom_site_fract_z
  _atom_site_occupancy
  Y   Y1        1.0  0.2500001403258948  0.24999987871805623  0.24999996661242713  1.0000
  Y   Y2        1.0  0.7500000891890992  0.7499998524596769  0.7500000554146377  1.0000
  Ge  Ge1       1.0  0.9999999975844047  0.9999999984438454  0.9999999930917097  1.0000
  I   I1        1.0  0.25987993423486594  0.25988000935214045  0.7401200279090409  1.0000
  I   I2        1.0  0.7401199649713496  0.7401200657357896  0.2598799796937435  1.0000
  I   I3        1.0  0.7401200046658508  0.2598800456374916  0.2598799168578097  1.0000
  I   I4        1.0  0.2598798909677958  0.7401200885843184  0.7401200604231287  1.0000
  I   I5        1.0  0.2598799583483211  0.7401200402363547  0.25987997316919387  1.0000
  I   I6        1.0  0.7401200194029156  0.2598800192900279  0.7401200321655396  1.0000
