data_image0
_chemical_formula_structural       Y2HgCl6
_chemical_formula_sum              "Y2 Hg1 Cl6"
_cell_length_a       7.052255741449968
_cell_length_b       7.052255455425382
_cell_length_c       7.052255480158887
_cell_angle_alpha    59.99999728785214
_cell_angle_beta     59.99999807619604
_cell_angle_gamma    59.99999791506355

_space_group_name_H-M_alt    "P 1"
_space_group_IT_number       1

loop_
  _space_group_symop_operation_xyz
  'x, y, z'

loop_
  _atom_site_type_symbol
  _atom_site_label
  _atom_site_symmetry_multiplicity
  _atom_site_fract_x
  _atom_site_fract_y
  _atom_site_fract_z
  _atom_site_occupancy
  Y   Y1        1.0  0.24999991350843412  0.24999998500583048  0.2500000611458771  1.0000
  Y   Y2        1.0  0.7500001654215617  0.750000198151464  0.7499998565124307  1.0000
  Hg  Hg1       1.0  5.902685290099549e-08  2.431339703232932e-08  0.9999999739277199  1.0000
  Cl  Cl1       1.0  0.26268986542337  0.2626897634426762  0.7373101925717287  1.0000
  Cl  Cl2       1.0  0.7373101153679213  0.7373102425741543  0.2626897932448519  1.0000
  Cl  Cl3       1.0  0.737310132289048  0.2626898662690488  0.2626898827058963  1.0000
  Cl  Cl4       1.0  0.26268975411487633  0.7373101380111093  0.7373102050561768  1.0000
  Cl  Cl5       1.0  0.2626898016170243  0.7373100456040241  0.26268989229574896  1.0000
  Cl  Cl6       1.0  0.7373101945263109  0.2626897276988634  0.7373101539902591  1.0000
