data_image0
_chemical_formula_structural       Y2HgI6
_chemical_formula_sum              "Y2 Hg1 I6"
_cell_length_a       7.903357216204821
_cell_length_b       7.903357158281325
_cell_length_c       7.903357235064058
_cell_angle_alpha    59.999999641156805
_cell_angle_beta     59.999999543582724
_cell_angle_gamma    60.0000002281027

_space_group_name_H-M_alt    "P 1"
_space_group_IT_number       1

loop_
  _space_group_symop_operation_xyz
  'x, y, z'

loop_
  _atom_site_type_symbol
  _atom_site_label
  _atom_site_symmetry_multiplicity
  _atom_site_fract_x
  _atom_site_fract_y
  _atom_site_fract_z
  _atom_site_occupancy
  Y   Y1        1.0  0.2500000117785835  0.249999933879827  0.2500000330254965  1.0000
  Y   Y2        1.0  0.7499999442456162  0.7500000836760411  0.7500000111949873  1.0000
  Hg  Hg1       1.0  0.9999999912490536  0.9999999736559255  0.9999999960376641  1.0000
  I   I1        1.0  0.2623415865824979  0.262341527383739  0.7376584377575834  1.0000
  I   I2        1.0  0.7376584032225375  0.7376584808742207  0.26234155120174374  1.0000
  I   I3        1.0  0.7376584623246262  0.2623415551990308  0.2623415612295009  1.0000
  I   I4        1.0  0.2623415510188614  0.7376584701050948  0.7376584441307846  1.0000
  I   I5        1.0  0.2623415800664388  0.7376584541324683  0.26234153639928726  1.0000
  I   I6        1.0  0.7376584708661955  0.2623415153842061  0.7376584350404577  1.0000
