data_image0
_chemical_formula_structural       Y2HgBr6
_chemical_formula_sum              "Y2 Hg1 Br6"
_cell_length_a       7.371738157983082
_cell_length_b       7.37173823384012
_cell_length_c       7.3717383647131856
_cell_angle_alpha    60.000000606278626
_cell_angle_beta     60.00000083958483
_cell_angle_gamma    60.00000041230613

_space_group_name_H-M_alt    "P 1"
_space_group_IT_number       1

loop_
  _space_group_symop_operation_xyz
  'x, y, z'

loop_
  _atom_site_type_symbol
  _atom_site_label
  _atom_site_symmetry_multiplicity
  _atom_site_fract_x
  _atom_site_fract_y
  _atom_site_fract_z
  _atom_site_occupancy
  Y   Y1        1.0  0.2500000449073245  0.2499999454717466  0.2500000358589832  1.0000
  Y   Y2        1.0  0.7499999874134514  0.7500001138700065  0.7499997806931255  1.0000
  Hg  Hg1       1.0  0.9999999789094162  0.9999999833859421  1.613925618501223e-08  1.0000
  Br  Br1       1.0  0.26366779339754665  0.2636677644971751  0.7363322425915886  1.0000
  Br  Br2       1.0  0.7363322103807767  0.7363322582936521  0.2636678533960575  1.0000
  Br  Br3       1.0  0.7363322273932351  0.2636676654393866  0.2636678509891676  1.0000
  Br  Br4       1.0  0.2636678073192802  0.7363322410530344  0.7363321940798676  1.0000
  Br  Br5       1.0  0.2636677257125863  0.736332244459773  0.26366779263501644  1.0000
  Br  Br6       1.0  0.7363322197455971  0.2636677700240248  0.7363322471350926  1.0000
