data_image0
_chemical_formula_structural       Y2HgF6
_chemical_formula_sum              "Y2 Hg1 F6"
_cell_length_a       5.69629871308097
_cell_length_b       5.696298827279924
_cell_length_c       5.696298070967621
_cell_angle_alpha    60.00000261431115
_cell_angle_beta     60.00000334202142
_cell_angle_gamma    60.00000364922129

_space_group_name_H-M_alt    "P 1"
_space_group_IT_number       1

loop_
  _space_group_symop_operation_xyz
  'x, y, z'

loop_
  _atom_site_type_symbol
  _atom_site_label
  _atom_site_symmetry_multiplicity
  _atom_site_fract_x
  _atom_site_fract_y
  _atom_site_fract_z
  _atom_site_occupancy
  Y   Y1        1.0  0.24999997123647066  0.2500011841995612  0.24999930838681628  1.0000
  Y   Y2        1.0  0.749999627295435  0.7499998265252078  0.7500002263326128  1.0000
  Hg  Hg1       1.0  0.9999999216137224  2.8380940767880243e-07  0.9999996409816191  1.0000
  F   F1        1.0  0.2721851327466696  0.2721850512942901  0.7278152316402656  1.0000
  F   F2        1.0  0.7278154827013855  0.7278144715811857  0.2721850353596418  1.0000
  F   F3        1.0  0.7278145956857287  0.2721850673599735  0.27218500716484084  1.0000
  F   F4        1.0  0.27218555959163826  0.7278142792096535  0.7278155376962382  1.0000
  F   F5        1.0  0.2721849729761919  0.7278146274372375  0.2721850143807721  1.0000
  F   F6        1.0  0.7278147510120875  0.2721851190456431  0.727815045843278  1.0000
