data_image0
_chemical_formula_structural       Y2InI6
_chemical_formula_sum              "Y2 In1 I6"
_cell_length_a       7.933492453765523
_cell_length_b       7.93349244026621
_cell_length_c       7.93349254342073
_cell_angle_alpha    59.999999046750446
_cell_angle_beta     59.999999779049276
_cell_angle_gamma    59.99999996731131

_space_group_name_H-M_alt    "P 1"
_space_group_IT_number       1

loop_
  _space_group_symop_operation_xyz
  'x, y, z'

loop_
  _atom_site_type_symbol
  _atom_site_label
  _atom_site_symmetry_multiplicity
  _atom_site_fract_x
  _atom_site_fract_y
  _atom_site_fract_z
  _atom_site_occupancy
  Y   Y1        1.0  0.2500000672775755  0.24999998911184376  0.2499999545039265  1.0000
  Y   Y2        1.0  0.749999974218487  0.7500000476113156  0.7499999598696268  1.0000
  In  In1       1.0  2.2964749426715178e-08  0.9999999660371678  1.7176048507714876e-09  1.0000
  I   I1        1.0  0.25760030143872287  0.2576003104931984  0.7423997042263561  1.0000
  I   I2        1.0  0.7423997002600559  0.7423997015297187  0.25760029281511637  1.0000
  I   I3        1.0  0.7423996766784542  0.2576002824485247  0.2576003541898479  1.0000
  I   I4        1.0  0.2576002842821535  0.7423997033303851  0.7423997128966023  1.0000
  I   I5        1.0  0.2576003072267038  0.7423997064854874  0.25760030047132365  1.0000
  I   I6        1.0  0.7423996631427769  0.25760029473107376  0.7423997188984548  1.0000
