data_image0
_chemical_formula_structural       Y2InBr6
_chemical_formula_sum              "Y2 In1 Br6"
_cell_length_a       7.333817656673177
_cell_length_b       7.333817572637594
_cell_length_c       7.333817718762352
_cell_angle_alpha    60.00000026892182
_cell_angle_beta     59.99999991545115
_cell_angle_gamma    59.999999307631725

_space_group_name_H-M_alt    "P 1"
_space_group_IT_number       1

loop_
  _space_group_symop_operation_xyz
  'x, y, z'

loop_
  _atom_site_type_symbol
  _atom_site_label
  _atom_site_symmetry_multiplicity
  _atom_site_fract_x
  _atom_site_fract_y
  _atom_site_fract_z
  _atom_site_occupancy
  Y   Y1        1.0  0.25000002667632837  0.25000006118113755  0.24999997600453128  1.0000
  Y   Y2        1.0  0.7500000383638232  0.7500000015138081  0.7499999757742999  1.0000
  In  In1       1.0  0.9999999827597574  2.337994964306646e-08  3.238235035202371e-08  1.0000
  Br  Br1       1.0  0.25701927405381075  0.2570193179432336  0.7429806831723341  1.0000
  Br  Br2       1.0  0.7429806853538109  0.7429806696018751  0.25701927173071654  1.0000
  Br  Br3       1.0  0.7429806898164875  0.2570192770633064  0.25701934048844255  1.0000
  Br  Br4       1.0  0.2570192913638221  0.7429806971218321  0.7429807029293976  1.0000
  Br  Br5       1.0  0.25701931525898386  0.7429806556284408  0.2570193179946288  1.0000
  Br  Br6       1.0  0.7429806877895226  0.25701930018673746  0.74298071003863  1.0000
