data_image0
_chemical_formula_structural       Y2InF6
_chemical_formula_sum              "Y2 In1 F6"
_cell_length_a       5.8193350142321245
_cell_length_b       5.819334874549794
_cell_length_c       5.819334535335561
_cell_angle_alpha    60.000004669213425
_cell_angle_beta     60.00000311033902
_cell_angle_gamma    60.000009618535984

_space_group_name_H-M_alt    "P 1"
_space_group_IT_number       1

loop_
  _space_group_symop_operation_xyz
  'x, y, z'

loop_
  _atom_site_type_symbol
  _atom_site_label
  _atom_site_symmetry_multiplicity
  _atom_site_fract_x
  _atom_site_fract_y
  _atom_site_fract_z
  _atom_site_occupancy
  Y   Y1        1.0  0.25000278750690846  0.2500005604360658  0.2499991382753078  1.0000
  Y   Y2        1.0  0.7499997837054789  0.7499998208295615  0.7500009882364584  1.0000
  In  In1       1.0  3.3768327612897714e-07  0.9999999810585184  1.1041940158957887e-07  1.0000
  F   F1        1.0  0.26317702424083644  0.26317738781783173  0.7368223335883547  1.0000
  F   F2        1.0  0.7368224045585685  0.7368233070348034  0.26317671564255884  1.0000
  F   F3        1.0  0.7368211224760239  0.2631774824030713  0.263176934866192  1.0000
  F   F4        1.0  0.2631773562573144  0.7368227410161755  0.7368228440169412  1.0000
  F   F5        1.0  0.2631779406846526  0.7368215357825688  0.2631766707433644  1.0000
  F   F6        1.0  0.7368213229140176  0.26317720809382766  0.7368242596941659  1.0000
