data_image0
_chemical_formula_structural       Y2InCl6
_chemical_formula_sum              "Y2 In1 Cl6"
_cell_length_a       7.063254201747771
_cell_length_b       7.063254400819057
_cell_length_c       7.063254380924611
_cell_angle_alpha    60.000001865855786
_cell_angle_beta     59.999999782936804
_cell_angle_gamma    60.00000309858519

_space_group_name_H-M_alt    "P 1"
_space_group_IT_number       1

loop_
  _space_group_symop_operation_xyz
  'x, y, z'

loop_
  _atom_site_type_symbol
  _atom_site_label
  _atom_site_symmetry_multiplicity
  _atom_site_fract_x
  _atom_site_fract_y
  _atom_site_fract_z
  _atom_site_occupancy
  Y   Y1        1.0  0.2500001209274405  0.2500002370311784  0.24999981273785588  1.0000
  Y   Y2        1.0  0.7499998844918508  0.749999988029386  0.7499999242128493  1.0000
  In  In1       1.0  1.337298550107104e-09  1.5605701192028912e-08  1.1349392025338341e-08  1.0000
  Cl  Cl1       1.0  0.25358415414539276  0.2535840188715236  0.746415852824332  1.0000
  Cl  Cl2       1.0  0.7464158303078167  0.7464158767353599  0.25358425046627725  1.0000
  Cl  Cl3       1.0  0.7464158599127542  0.25358406927901217  0.25358408911697494  1.0000
  Cl  Cl4       1.0  0.2535842350466872  0.7464158037863049  0.7464159220548505  1.0000
  Cl  Cl5       1.0  0.25358405530793926  0.7464158383902396  0.2535841975117126  1.0000
  Cl  Cl6       1.0  0.7464158425320037  0.253584169924482  0.7464159224629494  1.0000
