data_image0
_chemical_formula_structural       Y2MgF6
_chemical_formula_sum              "Y2 Mg1 F6"
_cell_length_a       5.474408986015066
_cell_length_b       5.474409136848533
_cell_length_c       5.4744093408467025
_cell_angle_alpha    60.00000182368168
_cell_angle_beta     59.99999956911715
_cell_angle_gamma    60.000001343019285

_space_group_name_H-M_alt    "P 1"
_space_group_IT_number       1

loop_
  _space_group_symop_operation_xyz
  'x, y, z'

loop_
  _atom_site_type_symbol
  _atom_site_label
  _atom_site_symmetry_multiplicity
  _atom_site_fract_x
  _atom_site_fract_y
  _atom_site_fract_z
  _atom_site_occupancy
  Y   Y1        1.0  0.24999989637434228  0.2500006130200363  0.24999963732944264  1.0000
  Y   Y2        1.0  0.7499999209131462  0.7500003020911432  0.7500002641965745  1.0000
  Mg  Mg1       1.0  0.9999999942021749  1.5660528396118293e-07  0.9999999812233877  1.0000
  F   F1        1.0  0.24912557973778826  0.2491249999911825  0.7508747828946958  1.0000
  F   F2        1.0  0.7508747344423478  0.7508746712266061  0.24912529302343234  1.0000
  F   F3        1.0  0.7508745437854117  0.24912527508149976  0.24912534032188816  1.0000
  F   F4        1.0  0.24912522863038053  0.7508744900994548  0.7508748535493208  1.0000
  F   F5        1.0  0.2491252597703336  0.7508745162331757  0.24912532665973489  1.0000
  F   F6        1.0  0.7508748173857034  0.24912501180262858  0.7508745283581841  1.0000
