data_image0
_chemical_formula_structural       Y2MgI6
_chemical_formula_sum              "Y2 Mg1 I6"
_cell_length_a       7.769465288898471
_cell_length_b       7.7694652845158005
_cell_length_c       7.769465291109847
_cell_angle_alpha    59.999999617366115
_cell_angle_beta     59.9999997632399
_cell_angle_gamma    59.999999645611396

_space_group_name_H-M_alt    "P 1"
_space_group_IT_number       1

loop_
  _space_group_symop_operation_xyz
  'x, y, z'

loop_
  _atom_site_type_symbol
  _atom_site_label
  _atom_site_symmetry_multiplicity
  _atom_site_fract_x
  _atom_site_fract_y
  _atom_site_fract_z
  _atom_site_occupancy
  Y   Y1        1.0  0.24999990423194118  0.2500000811844764  0.2500000067644788  1.0000
  Y   Y2        1.0  0.7500000301767947  0.7500000134053485  0.7500000281105857  1.0000
  Mg  Mg1       1.0  1.790912574742866e-08  2.2068993963924045e-08  0.9999999851592994  1.0000
  I   I1        1.0  0.25480339269600183  0.25480335042860525  0.7451966220259322  1.0000
  I   I2        1.0  0.7451965919913105  0.7451965754910514  0.2548033845228181  1.0000
  I   I3        1.0  0.7451966400466475  0.2548033868243838  0.25480337199923764  1.0000
  I   I4        1.0  0.2548033671577716  0.7451966053022547  0.7451966159292652  1.0000
  I   I5        1.0  0.2548034026530439  0.7451965958175402  0.2548034088956057  1.0000
  I   I6        1.0  0.7451966541370059  0.25480336793467756  0.7451965800111011  1.0000
