data_image0
_chemical_formula_structural       Y2MgCl6
_chemical_formula_sum              "Y2 Mg1 Cl6"
_cell_length_a       6.825410098784301
_cell_length_b       6.825409668721439
_cell_length_c       6.82541001719701
_cell_angle_alpha    59.99999665654867
_cell_angle_beta     59.999998985695065
_cell_angle_gamma    59.99999756030254

_space_group_name_H-M_alt    "P 1"
_space_group_IT_number       1

loop_
  _space_group_symop_operation_xyz
  'x, y, z'

loop_
  _atom_site_type_symbol
  _atom_site_label
  _atom_site_symmetry_multiplicity
  _atom_site_fract_x
  _atom_site_fract_y
  _atom_site_fract_z
  _atom_site_occupancy
  Y   Y1        1.0  0.25000067758344  0.2499996958079484  0.24999947367422432  1.0000
  Y   Y2        1.0  0.749999834581153  0.7500000635721716  0.7499999638452572  1.0000
  Mg  Mg1       1.0  0.9999999563717181  6.99812228853492e-08  2.4916478741693875e-08  1.0000
  Cl  Cl1       1.0  0.24912979653214212  0.24912986375032464  0.7508702362906  1.0000
  Cl  Cl2       1.0  0.7508699683959793  0.7508701934985816  0.24912999437674602  1.0000
  Cl  Cl3       1.0  0.7508699846150468  0.24912984272458097  0.24912998493749441  1.0000
  Cl  Cl4       1.0  0.24913003878121903  0.7508699974030953  0.7508701547309484  1.0000
  Cl  Cl5       1.0  0.24912996346334107  0.7508701584587071  0.24912989239225117  1.0000
  Cl  Cl6       1.0  0.7508697862182405  0.2491301069394795  0.7508702696608776  1.0000
