data_image0
_chemical_formula_structural       Y2MnF6
_chemical_formula_sum              "Y2 Mn1 F6"
_cell_length_a       5.456371416831196
_cell_length_b       5.456373049993128
_cell_length_c       5.456372517245831
_cell_angle_alpha    60.00000444456185
_cell_angle_beta     60.00000770852243
_cell_angle_gamma    60.00001003115815

_space_group_name_H-M_alt    "P 1"
_space_group_IT_number       1

loop_
  _space_group_symop_operation_xyz
  'x, y, z'

loop_
  _atom_site_type_symbol
  _atom_site_label
  _atom_site_symmetry_multiplicity
  _atom_site_fract_x
  _atom_site_fract_y
  _atom_site_fract_z
  _atom_site_occupancy
  Y   Y1        1.0  0.2500002448189041  0.24999983412499088  0.24999963103152198  1.0000
  Y   Y2        1.0  0.7499997959930775  0.7499998862037973  0.7500001105969466  1.0000
  Mn  Mn1       1.0  0.9999999641925165  1.391660315828423e-07  0.9999998072013262  1.0000
  F   F1        1.0  0.2520125476667885  0.2520123386785947  0.7479877831343186  1.0000
  F   F2        1.0  0.7479876570090925  0.7479877407882973  0.2520124868952494  1.0000
  F   F3        1.0  0.7479875332630814  0.252012272290681  0.2520124649992338  1.0000
  F   F4        1.0  0.2520123722158149  0.7479874794626716  0.7479878105886945  1.0000
  F   F5        1.0  0.25201219932373087  0.7479878587212442  0.2520121702795306  1.0000
  F   F6        1.0  0.7479876994981081  0.2520124272500918  0.7479875776163389  1.0000
