data_image0
_chemical_formula_structural       Y2MnCl6
_chemical_formula_sum              "Y2 Mn1 Cl6"
_cell_length_a       6.67731654732858
_cell_length_b       6.677316514678079
_cell_length_c       6.677316569287913
_cell_angle_alpha    59.99999753484457
_cell_angle_beta     59.99999633843634
_cell_angle_gamma    59.99999920034486

_space_group_name_H-M_alt    "P 1"
_space_group_IT_number       1

loop_
  _space_group_symop_operation_xyz
  'x, y, z'

loop_
  _atom_site_type_symbol
  _atom_site_label
  _atom_site_symmetry_multiplicity
  _atom_site_fract_x
  _atom_site_fract_y
  _atom_site_fract_z
  _atom_site_occupancy
  Y   Y1        1.0  0.25000008375602  0.25000000861905697  0.2500000995067977  1.0000
  Y   Y2        1.0  0.7500002759187899  0.7499997910812061  0.749999934831837  1.0000
  Mn  Mn1       1.0  0.9999999823924206  1.6507685454097735e-08  0.9999999795834409  1.0000
  Cl  Cl1       1.0  0.2465399037655777  0.24653989843671728  0.7534600074260016  1.0000
  Cl  Cl2       1.0  0.7534600026377178  0.7534602442565616  0.24653989934376244  1.0000
  Cl  Cl3       1.0  0.7534601043242388  0.24653985644200366  0.2465399246647422  1.0000
  Cl  Cl4       1.0  0.24653979235071463  0.7534602220547199  0.7534600924502439  1.0000
  Cl  Cl5       1.0  0.24653974685126892  0.7534601691668164  0.24653990881138133  1.0000
  Cl  Cl6       1.0  0.7534600977023279  0.24653980111285806  0.7534601450421905  1.0000
