data_image0
_chemical_formula_structural       Y2MnBr6
_chemical_formula_sum              "Y2 Mn1 Br6"
_cell_length_a       6.9161769944653475
_cell_length_b       6.916176978040894
_cell_length_c       6.916176874447016
_cell_angle_alpha    60.00000009441335
_cell_angle_beta     59.99999939693543
_cell_angle_gamma    60.00000072541313

_space_group_name_H-M_alt    "P 1"
_space_group_IT_number       1

loop_
  _space_group_symop_operation_xyz
  'x, y, z'

loop_
  _atom_site_type_symbol
  _atom_site_label
  _atom_site_symmetry_multiplicity
  _atom_site_fract_x
  _atom_site_fract_y
  _atom_site_fract_z
  _atom_site_occupancy
  Y   Y1        1.0  0.24999993642537982  0.25000000750292645  0.2500000890744915  1.0000
  Y   Y2        1.0  0.7499999854050475  0.7500001252175499  0.7499998689911251  1.0000
  Mn  Mn1       1.0  0.9999999784143095  0.999999964583183  6.320250652001877e-08  1.0000
  Br  Br1       1.0  0.24076190884250603  0.24076189903459222  0.7592380838715658  1.0000
  Br  Br2       1.0  0.759238159895224  0.7592380884769364  0.24076188635784207  1.0000
  Br  Br3       1.0  0.7592380917752145  0.24076187022202206  0.240761912637799  1.0000
  Br  Br4       1.0  0.24076193395893575  0.7592380960394162  0.7592380839349026  1.0000
  Br  Br5       1.0  0.24076191565587515  0.759238064215429  0.24076191252510992  1.0000
  Br  Br6       1.0  0.7592380925058951  0.2407618896501231  0.7592380946940683  1.0000
