data_image0
_chemical_formula_structural       Y2MnI6
_chemical_formula_sum              "Y2 Mn1 I6"
_cell_length_a       7.732739720960351
_cell_length_b       7.732739873249738
_cell_length_c       7.732739703452059
_cell_angle_alpha    60.000000437522495
_cell_angle_beta     60.00000016459537
_cell_angle_gamma    60.00000060238858

_space_group_name_H-M_alt    "P 1"
_space_group_IT_number       1

loop_
  _space_group_symop_operation_xyz
  'x, y, z'

loop_
  _atom_site_type_symbol
  _atom_site_label
  _atom_site_symmetry_multiplicity
  _atom_site_fract_x
  _atom_site_fract_y
  _atom_site_fract_z
  _atom_site_occupancy
  Y   Y1        1.0  0.2500000830012229  0.24999997951153524  0.2499999940081874  1.0000
  Y   Y2        1.0  0.750000106797006  0.7499999306153895  0.7499998889711481  1.0000
  Mn  Mn1       1.0  1.6425880609286256e-08  0.9999999999999999  1.8944316825043743e-08  1.0000
  I   I1        1.0  0.25085778616487725  0.2508578585363286  0.7491421794118126  1.0000
  I   I2        1.0  0.7491421402136098  0.7491421878011238  0.250857897785604  1.0000
  I   I3        1.0  0.7491421499319075  0.2508578041741123  0.2508578252729005  1.0000
  I   I4        1.0  0.2508578226937392  0.7491421661388595  0.7491421918074191  1.0000
  I   I5        1.0  0.2508577648086623  0.7491421726909074  0.25085783732340394  1.0000
  I   I6        1.0  0.7491421251880508  0.2508579021557254  0.7491421713909571  1.0000
