data_image0
_chemical_formula_structural       Y2NbI6
_chemical_formula_sum              "Y2 Nb1 I6"
_cell_length_a       7.954165489526504
_cell_length_b       7.954165560299962
_cell_length_c       7.954165558058196
_cell_angle_alpha    60.00000055222474
_cell_angle_beta     59.99999965385425
_cell_angle_gamma    60.00000111891188

_space_group_name_H-M_alt    "P 1"
_space_group_IT_number       1

loop_
  _space_group_symop_operation_xyz
  'x, y, z'

loop_
  _atom_site_type_symbol
  _atom_site_label
  _atom_site_symmetry_multiplicity
  _atom_site_fract_x
  _atom_site_fract_y
  _atom_site_fract_z
  _atom_site_occupancy
  Y   Y1        1.0  0.2500000002160208  0.25000005408716497  0.24999993742181978  1.0000
  Y   Y2        1.0  0.7499999197810421  0.7500000129054746  0.7500000279532111  1.0000
  Nb  Nb1       1.0  3.079505376201784e-09  0.9999999907614836  4.582440405305286e-08  1.0000
  I   I1        1.0  0.2529149358021611  0.2529149417478305  0.7470850623899761  1.0000
  I   I2        1.0  0.7470850876626604  0.7470850282403846  0.25291494249828594  1.0000
  I   I3        1.0  0.7470850764781354  0.25291492591318626  0.25291495912236933  1.0000
  I   I4        1.0  0.2529149735423489  0.7470850471545349  0.747085059863975  1.0000
  I   I5        1.0  0.2529149609678961  0.747085064015804  0.25291492242361163  1.0000
  I   I6        1.0  0.7470850440350006  0.2529149352277139  0.7470850481522948  1.0000
