data_image0
_chemical_formula_structural       Y2NbCl6
_chemical_formula_sum              "Y2 Nb1 Cl6"
_cell_length_a       6.595603191642555
_cell_length_b       6.595602877618938
_cell_length_c       6.595603167010061
_cell_angle_alpha    59.99999653252585
_cell_angle_beta     59.9999977129957
_cell_angle_gamma    59.999996677891474

_space_group_name_H-M_alt    "P 1"
_space_group_IT_number       1

loop_
  _space_group_symop_operation_xyz
  'x, y, z'

loop_
  _atom_site_type_symbol
  _atom_site_label
  _atom_site_symmetry_multiplicity
  _atom_site_fract_x
  _atom_site_fract_y
  _atom_site_fract_z
  _atom_site_occupancy
  Y   Y1        1.0  0.2500001855671996  0.2500000679795848  0.2499999659145012  1.0000
  Y   Y2        1.0  0.7500001479969036  0.7499997861337259  0.7500000744771753  1.0000
  Nb  Nb1       1.0  0.9999999778779297  0.9999999665755985  0.999999947416674  1.0000
  Cl  Cl1       1.0  0.26039477949642387  0.2603947828976272  0.7396051544470649  1.0000
  Cl  Cl2       1.0  0.7396052745179713  0.7396051640612507  0.2603947852280059  1.0000
  Cl  Cl3       1.0  0.7396049741970683  0.2603950624477196  0.26039478681825606  1.0000
  Cl  Cl4       1.0  0.26039480990407654  0.7396050534900822  0.7396053594886213  1.0000
  Cl  Cl5       1.0  0.2603947980729285  0.7396051659210857  0.26039476240972154  1.0000
  Cl  Cl6       1.0  0.7396050340226301  0.2603949425890739  0.739605139221858  1.0000
