data_image0
_chemical_formula_structural       Y2NbBr6
_chemical_formula_sum              "Y2 Nb1 Br6"
_cell_length_a       7.213146939686054
_cell_length_b       7.213146770845022
_cell_length_c       7.213146001857448
_cell_angle_alpha    60.00000254562848
_cell_angle_beta     60.000004925897876
_cell_angle_gamma    59.999999637816444

_space_group_name_H-M_alt    "P 1"
_space_group_IT_number       1

loop_
  _space_group_symop_operation_xyz
  'x, y, z'

loop_
  _atom_site_type_symbol
  _atom_site_label
  _atom_site_symmetry_multiplicity
  _atom_site_fract_x
  _atom_site_fract_y
  _atom_site_fract_z
  _atom_site_occupancy
  Y   Y1        1.0  0.25000001761622825  0.2500002545542873  0.25000013206676786  1.0000
  Y   Y2        1.0  0.7499998035527822  0.7500000131759597  0.7500003886848177  1.0000
  Nb  Nb1       1.0  0.9999999573103072  5.603183061383964e-08  0.9999999101474726  1.0000
  Br  Br1       1.0  0.2553393425074934  0.25533935762319804  0.7446606392856786  1.0000
  Br  Br2       1.0  0.7446606431307365  0.7446606520210554  0.25533932104965434  1.0000
  Br  Br3       1.0  0.744660621710851  0.2553394343425669  0.2553392442288354  1.0000
  Br  Br4       1.0  0.2553395179981207  0.7446603868309905  0.744660493466607  1.0000
  Br  Br5       1.0  0.2553393272599109  0.7446606328368547  0.2553393250862689  1.0000
  Br  Br6       1.0  0.7446607837146096  0.25533921210778016  0.7446605440221196  1.0000
