data_image0
_chemical_formula_structural       Y2NbF6
_chemical_formula_sum              "Y2 Nb1 F6"
_cell_length_a       5.8943708993917125
_cell_length_b       5.894365325195423
_cell_length_c       5.894379045307292
_cell_angle_alpha    59.99995295013337
_cell_angle_beta     60.00001707229605
_cell_angle_gamma    59.99997355201028

_space_group_name_H-M_alt    "P 1"
_space_group_IT_number       1

loop_
  _space_group_symop_operation_xyz
  'x, y, z'

loop_
  _atom_site_type_symbol
  _atom_site_label
  _atom_site_symmetry_multiplicity
  _atom_site_fract_x
  _atom_site_fract_y
  _atom_site_fract_z
  _atom_site_occupancy
  Y   Y1        1.0  0.2500124060789825  0.2499908891509548  0.25000491289748705  1.0000
  Y   Y2        1.0  0.7500026792363541  0.7500128837399417  0.7499957626338579  1.0000
  Nb  Nb1       1.0  2.244962909189863e-06  1.0638465229009801e-06  0.9999997503247109  1.0000
  F   F1        1.0  0.2573764408235214  0.2573615600454456  0.7426285799594072  1.0000
  F   F2        1.0  0.7426224532883395  0.7426410908171212  0.25736799256613874  1.0000
  F   F3        1.0  0.7426227722182664  0.25735932887485713  0.25737848340194336  1.0000
  F   F4        1.0  0.25736491015024365  0.7426431058922636  0.7426194378619615  1.0000
  F   F5        1.0  0.2573671384146834  0.7426341777334076  0.25737103388892224  1.0000
  F   F6        1.0  0.7426291311959606  0.25735556568336665  0.7426342953803851  1.0000
