data_image0
_chemical_formula_structural       Y2NiCl6
_chemical_formula_sum              "Y2 Ni1 Cl6"
_cell_length_a       6.660915970294449
_cell_length_b       6.660916125979252
_cell_length_c       6.660916031829402
_cell_angle_alpha    60.000000237138465
_cell_angle_beta     60.00000205777554
_cell_angle_gamma    59.99999904266316

_space_group_name_H-M_alt    "P 1"
_space_group_IT_number       1

loop_
  _space_group_symop_operation_xyz
  'x, y, z'

loop_
  _atom_site_type_symbol
  _atom_site_label
  _atom_site_symmetry_multiplicity
  _atom_site_fract_x
  _atom_site_fract_y
  _atom_site_fract_z
  _atom_site_occupancy
  Y   Y1        1.0  0.24999985727247492  0.24999993845472981  0.2500002539065536  1.0000
  Y   Y2        1.0  0.7499999801110896  0.7499998282351087  0.7500001803175085  1.0000
  Ni  Ni1       1.0  0.9999999758865439  8.27416495728292e-08  9.529338852256774e-08  1.0000
  Cl  Cl1       1.0  0.24723159422374041  0.24723159017750304  0.7527683514582286  1.0000
  Cl  Cl2       1.0  0.7527684573622955  0.7527684284146928  0.24723154645183076  1.0000
  Cl  Cl3       1.0  0.7527685154195806  0.2472315845870165  0.24723150837492863  1.0000
  Cl  Cl4       1.0  0.24723164630823327  0.7527684156181447  0.7527682595852404  1.0000
  Cl  Cl5       1.0  0.2472316135702729  0.7527684049051441  0.24723152722028172  1.0000
  Cl  Cl6       1.0  0.7527683572901369  0.2472317258479584  0.7527682844112702  1.0000
