data_image0
_chemical_formula_structural       Y2NiF6
_chemical_formula_sum              "Y2 Ni1 F6"
_cell_length_a       5.377973878877204
_cell_length_b       5.377973479511247
_cell_length_c       5.377974034066747
_cell_angle_alpha    59.9999966849767
_cell_angle_beta     59.99999645288411
_cell_angle_gamma    59.999998141709156

_space_group_name_H-M_alt    "P 1"
_space_group_IT_number       1

loop_
  _space_group_symop_operation_xyz
  'x, y, z'

loop_
  _atom_site_type_symbol
  _atom_site_label
  _atom_site_symmetry_multiplicity
  _atom_site_fract_x
  _atom_site_fract_y
  _atom_site_fract_z
  _atom_site_occupancy
  Y   Y1        1.0  0.24999979581317772  0.2499999235458285  0.2500001993760971  1.0000
  Y   Y2        1.0  0.7500000637435643  0.7500002602645964  0.749999713934031  1.0000
  Ni  Ni1       1.0  7.274064541621735e-08  1.3664014594797964e-08  5.9066663653546155e-08  1.0000
  F   F1        1.0  0.25427309521425395  0.25427284785198634  0.7457270619613712  1.0000
  F   F2        1.0  0.7457270621856116  0.7457270672328736  0.25427299484205484  1.0000
  F   F3        1.0  0.7457271717735515  0.2542727289416489  0.2542731228700293  1.0000
  F   F4        1.0  0.2542727353058847  0.7457271770338643  0.7457269948491476  1.0000
  F   F5        1.0  0.25427284101752357  0.7457271238602453  0.2542729464413595  1.0000
  F   F6        1.0  0.7457271293880463  0.2542729142007178  0.7457268932067056  1.0000
