data_image0
_chemical_formula_structural       Y2NiI6
_chemical_formula_sum              "Y2 Ni1 I6"
_cell_length_a       7.60024012348998
_cell_length_b       7.600240189482783
_cell_length_c       7.600240098056595
_cell_angle_alpha    60.00000033447641
_cell_angle_beta     60.000000201306115
_cell_angle_gamma    60.00000045059159

_space_group_name_H-M_alt    "P 1"
_space_group_IT_number       1

loop_
  _space_group_symop_operation_xyz
  'x, y, z'

loop_
  _atom_site_type_symbol
  _atom_site_label
  _atom_site_symmetry_multiplicity
  _atom_site_fract_x
  _atom_site_fract_y
  _atom_site_fract_z
  _atom_site_occupancy
  Y   Y1        1.0  0.24999999082685698  0.2500000045994715  0.25000001036048236  1.0000
  Y   Y2        1.0  0.749999952253123  0.7500000653649896  0.7499999562032276  1.0000
  Ni  Ni1       1.0  0.9999999823819626  2.094892118167679e-08  0.9999999522833813  1.0000
  I   I1        1.0  0.2479234378935677  0.24792337618705979  0.752076578793044  1.0000
  I   I2        1.0  0.7520765602049437  0.7520765970900732  0.24792343492002267  1.0000
  I   I3        1.0  0.7520765678008737  0.2479234060677654  0.2479234154413578  1.0000
  I   I4        1.0  0.24792343385756682  0.7520765929926552  0.752076586231596  1.0000
  I   I5        1.0  0.24792344029397478  0.7520765677446252  0.24792343987331822  1.0000
  I   I6        1.0  0.7520766379901432  0.24792337008048737  0.75207662383909  1.0000
