data_image0
_chemical_formula_structural       Y2NiBr6
_chemical_formula_sum              "Y2 Ni1 Br6"
_cell_length_a       7.0092187048077985
_cell_length_b       7.009218627234482
_cell_length_c       7.0092186701247945
_cell_angle_alpha    60.00000012381842
_cell_angle_beta     60.000000734707335
_cell_angle_gamma    59.999999416063375

_space_group_name_H-M_alt    "P 1"
_space_group_IT_number       1

loop_
  _space_group_symop_operation_xyz
  'x, y, z'

loop_
  _atom_site_type_symbol
  _atom_site_label
  _atom_site_symmetry_multiplicity
  _atom_site_fract_x
  _atom_site_fract_y
  _atom_site_fract_z
  _atom_site_occupancy
  Y   Y1        1.0  0.2499999458004291  0.25000002941589866  0.25000001193815624  1.0000
  Y   Y2        1.0  0.7500000481203992  0.7500000096176472  0.7500001338395799  1.0000
  Ni  Ni1       1.0  2.5893075310386922e-08  0.9999999668006465  5.929414824694939e-08  1.0000
  Br  Br1       1.0  0.24743728215282265  0.2474373808506175  0.7525626601715113  1.0000
  Br  Br2       1.0  0.7525626640104741  0.7525626284782436  0.2474373089067588  1.0000
  Br  Br3       1.0  0.7525626768070868  0.2474373491529348  0.24743729830971742  1.0000
  Br  Br4       1.0  0.24743733788188974  0.7525626374605788  0.7525626350231539  1.0000
  Br  Br5       1.0  0.24743738978179874  0.7525626559030808  0.24743728180605534  1.0000
  Br  Br6       1.0  0.7525626345917299  0.24743734119443897  0.7525626029218383  1.0000
