data_image0
_chemical_formula_structural       Y2PdI6
_chemical_formula_sum              "Y2 Pd1 I6"
_cell_length_a       7.674955373884647
_cell_length_b       7.674955370119763
_cell_length_c       7.6749553189160995
_cell_angle_alpha    60.00000060420376
_cell_angle_beta     60.000000703049366
_cell_angle_gamma    59.99999973721094

_space_group_name_H-M_alt    "P 1"
_space_group_IT_number       1

loop_
  _space_group_symop_operation_xyz
  'x, y, z'

loop_
  _atom_site_type_symbol
  _atom_site_label
  _atom_site_symmetry_multiplicity
  _atom_site_fract_x
  _atom_site_fract_y
  _atom_site_fract_z
  _atom_site_occupancy
  Y   Y1        1.0  0.2500000110716612  0.2499999004651888  0.25000006545156656  1.0000
  Y   Y2        1.0  0.7499999718273408  0.7500001067206546  0.749999888880303  1.0000
  Pd  Pd1       1.0  0.9999999872495138  1.1170376545919232e-08  7.900548349314581e-10  1.0000
  I   I1        1.0  0.250434763580234  0.25043470227514847  0.7495652727304347  1.0000
  I   I2        1.0  0.7495652624174777  0.7495653065064631  0.2504347556716954  1.0000
  I   I3        1.0  0.7495653081119256  0.2504346483475128  0.25043474829458195  1.0000
  I   I4        1.0  0.2504347278254489  0.7495653125610569  0.7495652638948798  1.0000
  I   I5        1.0  0.25043467360303356  0.7495653192490506  0.25043472066603284  1.0000
  I   I6        1.0  0.7495652946003186  0.2504346959156336  0.749565280021234  1.0000
