data_image0
_chemical_formula_structural       Y2PdBr6
_chemical_formula_sum              "Y2 Pd1 Br6"
_cell_length_a       7.083353370889375
_cell_length_b       7.08335336916078
_cell_length_c       7.0833532570831395
_cell_angle_alpha    60.00000010995314
_cell_angle_beta     60.000000345665875
_cell_angle_gamma    60.00000015793018

_space_group_name_H-M_alt    "P 1"
_space_group_IT_number       1

loop_
  _space_group_symop_operation_xyz
  'x, y, z'

loop_
  _atom_site_type_symbol
  _atom_site_label
  _atom_site_symmetry_multiplicity
  _atom_site_fract_x
  _atom_site_fract_y
  _atom_site_fract_z
  _atom_site_occupancy
  Y   Y1        1.0  0.24999995240598627  0.25000000104294784  0.25000004493734856  1.0000
  Y   Y2        1.0  0.7500000848331075  0.7499998924698558  0.7500000156282536  1.0000
  Pd  Pd1       1.0  2.7630814733717615e-08  0.9999999757933464  0.9999999827585514  1.0000
  Br  Br1       1.0  0.24885177618190563  0.24885180138823765  0.7511481893232569  1.0000
  Br  Br2       1.0  0.7511482551099828  0.7511482615711418  0.24885175278688057  1.0000
  Br  Br3       1.0  0.751148214613405  0.2488517922959292  0.24885178248669096  1.0000
  Br  Br4       1.0  0.24885172280438875  0.7511482637472634  0.7511482396655627  1.0000
  Br  Br5       1.0  0.24885174515976013  0.7511482190646026  0.24885177614157808  1.0000
  Br  Br6       1.0  0.7511482190328083  0.24885180066860968  0.7511482126607388  1.0000
