data_image0
_chemical_formula_structural       Y2PdCl6
_chemical_formula_sum              "Y2 Pd1 Cl6"
_cell_length_a       6.788751239715885
_cell_length_b       6.7887507435892
_cell_length_c       6.788750932309468
_cell_angle_alpha    60.000001410082504
_cell_angle_beta     60.00000041527521
_cell_angle_gamma    60.00000182759996

_space_group_name_H-M_alt    "P 1"
_space_group_IT_number       1

loop_
  _space_group_symop_operation_xyz
  'x, y, z'

loop_
  _atom_site_type_symbol
  _atom_site_label
  _atom_site_symmetry_multiplicity
  _atom_site_fract_x
  _atom_site_fract_y
  _atom_site_fract_z
  _atom_site_occupancy
  Y   Y1        1.0  0.24999981067815727  0.25000005533609154  0.24999975763410148  1.0000
  Y   Y2        1.0  0.7499996620305699  0.7500003843019902  0.7500005512429233  1.0000
  Pd  Pd1       1.0  2.9637585567605788e-08  0.9999999621143227  0.9999999761365695  1.0000
  Cl  Cl1       1.0  0.2510451149005818  0.25104497923897684  0.7489550286072397  1.0000
  Cl  Cl2       1.0  0.7489550151734174  0.7489549119588287  0.2510447765346401  1.0000
  Cl  Cl3       1.0  0.7489550140755962  0.2510450060628598  0.25104503919592897  1.0000
  Cl  Cl4       1.0  0.2510450443187266  0.7489549572981455  0.7489549925500447  1.0000
  Cl  Cl5       1.0  0.2510452290948639  0.748954960152371  0.25104493065622824  1.0000
  Cl  Cl6       1.0  0.7489550898678434  0.2510447776986535  0.7489549421501351  1.0000
