data_image0
_chemical_formula_structural       Y2PdF6
_chemical_formula_sum              "Y2 Pd1 F6"
_cell_length_a       5.43524674775246
_cell_length_b       5.4352468127211235
_cell_length_c       5.435246758173627
_cell_angle_alpha    60.00000061275446
_cell_angle_beta     60.00000052879725
_cell_angle_gamma    60.00000131041477

_space_group_name_H-M_alt    "P 1"
_space_group_IT_number       1

loop_
  _space_group_symop_operation_xyz
  'x, y, z'

loop_
  _atom_site_type_symbol
  _atom_site_label
  _atom_site_symmetry_multiplicity
  _atom_site_fract_x
  _atom_site_fract_y
  _atom_site_fract_z
  _atom_site_occupancy
  Y   Y1        1.0  0.24999993211311708  0.2500001193643096  0.2499999153638924  1.0000
  Y   Y2        1.0  0.7499999538999221  0.7499999682654431  0.7499999302993207  1.0000
  Pd  Pd1       1.0  0.9999999516085083  4.957343726842074e-08  3.2526198796413504e-08  1.0000
  F   F1        1.0  0.2679642128942387  0.2679641952977796  0.7320358016876304  1.0000
  F   F2        1.0  0.7320359054185568  0.7320357053049151  0.2679642568391218  1.0000
  F   F3        1.0  0.732035738202475  0.26796418984347575  0.2679642842646249  1.0000
  F   F4        1.0  0.2679642467622374  0.7320357220259083  0.7320358831387382  1.0000
  F   F5        1.0  0.26796427295736025  0.7320358072141975  0.26796415375404864  1.0000
  F   F6        1.0  0.7320357959108686  0.26796423534879554  0.7320357591633226  1.0000
