data_image0
_chemical_formula_structural       Y2PtBr6
_chemical_formula_sum              "Y2 Pt1 Br6"
_cell_length_a       7.144549571412616
_cell_length_b       7.144549318333897
_cell_length_c       7.144549465909034
_cell_angle_alpha    59.9999989103393
_cell_angle_beta     59.99999994788406
_cell_angle_gamma    60.00000069881932

_space_group_name_H-M_alt    "P 1"
_space_group_IT_number       1

loop_
  _space_group_symop_operation_xyz
  'x, y, z'

loop_
  _atom_site_type_symbol
  _atom_site_label
  _atom_site_symmetry_multiplicity
  _atom_site_fract_x
  _atom_site_fract_y
  _atom_site_fract_z
  _atom_site_occupancy
  Y   Y1        1.0  0.24999990535028965  0.25000003848220603  0.2500000412773655  1.0000
  Y   Y2        1.0  0.7500000869305408  0.7499999337375329  0.7499999956547612  1.0000
  Pt  Pt1       1.0  0.9999999926052826  0.9999999640010285  4.6890875473568527e-08  1.0000
  Br  Br1       1.0  0.24491603755923666  0.24491606523712475  0.7550839684166248  1.0000
  Br  Br2       1.0  0.7550839927260304  0.7550839481242965  0.24491601634542662  1.0000
  Br  Br3       1.0  0.7550839226039777  0.24491607823654335  0.24491603913969384  1.0000
  Br  Br4       1.0  0.24491605756233692  0.7550839642669014  0.7550839253181176  1.0000
  Br  Br5       1.0  0.24491608016535055  0.7550839484326015  0.24491605377186812  1.0000
  Br  Br6       1.0  0.7550839131434451  0.24491605464339883  0.7550839196294202  1.0000
