data_image0
_chemical_formula_structural       Y2PtF6
_chemical_formula_sum              "Y2 Pt1 F6"
_cell_length_a       5.46206627948214
_cell_length_b       5.4620672768914
_cell_length_c       5.462066094075417
_cell_angle_alpha    60.00001431271972
_cell_angle_beta     60.00001063929683
_cell_angle_gamma    60.00001156240649

_space_group_name_H-M_alt    "P 1"
_space_group_IT_number       1

loop_
  _space_group_symop_operation_xyz
  'x, y, z'

loop_
  _atom_site_type_symbol
  _atom_site_label
  _atom_site_symmetry_multiplicity
  _atom_site_fract_x
  _atom_site_fract_y
  _atom_site_fract_z
  _atom_site_occupancy
  Y   Y1        1.0  0.24999455366967172  0.2500046598396465  0.25000023853275644  1.0000
  Y   Y2        1.0  0.7500001672095339  0.7499987970874106  0.7499963390025924  1.0000
  Pt  Pt1       1.0  5.376980922191458e-07  0.9999995919063095  3.672687499966128e-07  1.0000
  F   F1        1.0  0.25984224728470656  0.25984416918328285  0.7401562397192746  1.0000
  F   F2        1.0  0.7401596242302344  0.7401539511339988  0.2598456280919314  1.0000
  F   F3        1.0  0.7401579391844477  0.2598434140535991  0.2598431473041969  1.0000
  F   F4        1.0  0.25984430584037194  0.7401554439715284  0.7401579690016461  1.0000
  F   F5        1.0  0.2598423458614875  0.740154951438864  0.259844915859266  1.0000
  F   F6        1.0  0.7401583632442434  0.2598450008154934  0.7401551177554162  1.0000
