data_image0
_chemical_formula_structural       Y2PtCl6
_chemical_formula_sum              "Y2 Pt1 Cl6"
_cell_length_a       6.964210516587238
_cell_length_b       6.964210062665328
_cell_length_c       6.964210190887019
_cell_angle_alpha    60.00000186253163
_cell_angle_beta     60.000002720534944
_cell_angle_gamma    60.000001201709864

_space_group_name_H-M_alt    "P 1"
_space_group_IT_number       1

loop_
  _space_group_symop_operation_xyz
  'x, y, z'

loop_
  _atom_site_type_symbol
  _atom_site_label
  _atom_site_symmetry_multiplicity
  _atom_site_fract_x
  _atom_site_fract_y
  _atom_site_fract_z
  _atom_site_occupancy
  Y   Y1        1.0  0.25000074862792476  0.2500000451703762  0.24999953597452074  1.0000
  Y   Y2        1.0  0.7499995910937677  0.7500002357528444  0.7499997904274274  1.0000
  Pt  Pt1       1.0  0.9999999936034716  0.9999999296549159  3.837080491778905e-08  1.0000
  Cl  Cl1       1.0  0.2468323288531367  0.24683215751856877  0.7531678424615978  1.0000
  Cl  Cl2       1.0  0.7531676304771303  0.7531678121276626  0.24683232085679713  1.0000
  Cl  Cl3       1.0  0.7531675211731529  0.2468322024098101  0.24683241438422834  1.0000
  Cl  Cl4       1.0  0.2468323549041046  0.7531676986499641  0.7531678478285059  1.0000
  Cl  Cl5       1.0  0.24683231473066877  0.7531675723976949  0.246832412246385  1.0000
  Cl  Cl6       1.0  0.7531675240993945  0.24683231107580614  0.753167812766997  1.0000
