data_image0
_chemical_formula_structural       Y2PtI6
_chemical_formula_sum              "Y2 Pt1 I6"
_cell_length_a       7.7047387025596725
_cell_length_b       7.704738668968658
_cell_length_c       7.704738625967067
_cell_angle_alpha    60.000000366125974
_cell_angle_beta     60.000000207654736
_cell_angle_gamma    59.99999989203714

_space_group_name_H-M_alt    "P 1"
_space_group_IT_number       1

loop_
  _space_group_symop_operation_xyz
  'x, y, z'

loop_
  _atom_site_type_symbol
  _atom_site_label
  _atom_site_symmetry_multiplicity
  _atom_site_fract_x
  _atom_site_fract_y
  _atom_site_fract_z
  _atom_site_occupancy
  Y   Y1        1.0  0.250000021930786  0.25000000391060956  0.249999993295533  1.0000
  Y   Y2        1.0  0.7500000150499572  0.749999948147849  0.7500000396455944  1.0000
  Pt  Pt1       1.0  0.9999999904026882  0.9999999793352066  0.999999978789781  1.0000
  I   I1        1.0  0.2491809877038492  0.24918098310694825  0.7508190048483944  1.0000
  I   I2        1.0  0.7508189954591261  0.7508190404834875  0.249180979000649  1.0000
  I   I3        1.0  0.7508190058033133  0.24918099534069268  0.24918097201558573  1.0000
  I   I4        1.0  0.24918096341690946  0.7508190520937358  0.7508190211597657  1.0000
  I   I5        1.0  0.24918100184203373  0.7508190285774755  0.2491809663127939  1.0000
  I   I6        1.0  0.7508190163362476  0.2491809664001695  0.7508190454846533  1.0000
