data_image0
_chemical_formula_structural       Y2SBr6
_chemical_formula_sum              "Y2 S1 Br6"
_cell_length_a       7.30445127358082
_cell_length_b       7.30445132178459
_cell_length_c       7.304451253925121
_cell_angle_alpha    60.000001486209996
_cell_angle_beta     60.00000066827934
_cell_angle_gamma    60.00000147234271

_space_group_name_H-M_alt    "P 1"
_space_group_IT_number       1

loop_
  _space_group_symop_operation_xyz
  'x, y, z'

loop_
  _atom_site_type_symbol
  _atom_site_label
  _atom_site_symmetry_multiplicity
  _atom_site_fract_x
  _atom_site_fract_y
  _atom_site_fract_z
  _atom_site_occupancy
  Y   Y1        1.0  0.2500000352730618  0.25000017295507604  0.24999986129079638  1.0000
  Y   Y2        1.0  0.7499999204117967  0.7499998515345426  0.7499999855989112  1.0000
  S   S1        1.0  0.9999999963589018  2.5150654571327277e-08  4.948246430126776e-08  1.0000
  Br  Br1       1.0  0.2573637913128525  0.25736370991098906  0.7426362481632985  1.0000
  Br  Br2       1.0  0.7426362205801091  0.7426362408033806  0.25736381560227306  1.0000
  Br  Br3       1.0  0.7426362450370644  0.25736380724712626  0.25736373578646293  1.0000
  Br  Br4       1.0  0.25736377044763875  0.7426362038288126  0.742636272728974  1.0000
  Br  Br5       1.0  0.25736380340353604  0.7426361296606074  0.25736378116725633  1.0000
  Br  Br6       1.0  0.7426362168400722  0.25736385291125735  0.7426362501729907  1.0000
