data_image0
_chemical_formula_structural       Y2ScCl6
_chemical_formula_sum              "Y2 Sc1 Cl6"
_cell_length_a       7.028449166516446
_cell_length_b       7.02844837694773
_cell_length_c       7.028448938771287
_cell_angle_alpha    60.00000357682493
_cell_angle_beta     59.9999997514077
_cell_angle_gamma    60.000002081636204

_space_group_name_H-M_alt    "P 1"
_space_group_IT_number       1

loop_
  _space_group_symop_operation_xyz
  'x, y, z'

loop_
  _atom_site_type_symbol
  _atom_site_label
  _atom_site_symmetry_multiplicity
  _atom_site_fract_x
  _atom_site_fract_y
  _atom_site_fract_z
  _atom_site_occupancy
  Y   Y1        1.0  0.2500005576510526  0.24999953904620498  0.2500003067355362  1.0000
  Y   Y2        1.0  0.7499996291876659  0.7500008005581368  0.7499990633567034  1.0000
  Sc  Sc1       1.0  9.268556296365254e-08  0.9999998205169996  3.3507045906223614e-07  1.0000
  Cl  Cl1       1.0  0.25011319930071113  0.25011287938573934  0.7498870056645484  1.0000
  Cl  Cl2       1.0  0.749886743549734  0.7498870733717383  0.25011333432819516  1.0000
  Cl  Cl3       1.0  0.7498867942636276  0.25011286945384503  0.2501133362072239  1.0000
  Cl  Cl4       1.0  0.2501134075379892  0.7498868288907862  0.7498867112673815  1.0000
  Cl  Cl5       1.0  0.25011281127721646  0.7498869322979984  0.25011324793253  1.0000
  Cl  Cl6       1.0  0.749886809528659  0.250113252219068  0.7498866463405051  1.0000
