data_image0
_chemical_formula_structural       Y2ScF6
_chemical_formula_sum              "Y2 Sc1 F6"
_cell_length_a       5.740931225129629
_cell_length_b       5.740930971661595
_cell_length_c       5.740931968833718
_cell_angle_alpha    60.00000119613895
_cell_angle_beta     59.99999855371498
_cell_angle_gamma    59.999999341402514

_space_group_name_H-M_alt    "P 1"
_space_group_IT_number       1

loop_
  _space_group_symop_operation_xyz
  'x, y, z'

loop_
  _atom_site_type_symbol
  _atom_site_label
  _atom_site_symmetry_multiplicity
  _atom_site_fract_x
  _atom_site_fract_y
  _atom_site_fract_z
  _atom_site_occupancy
  Y   Y1        1.0  0.24999899764723862  0.24999921018611038  0.25000080928108986  1.0000
  Y   Y2        1.0  0.749999186232258  0.750000747391222  0.750000039289015  1.0000
  Sc  Sc1       1.0  0.999999701811655  6.186731364876557e-08  2.061537472605444e-08  1.0000
  F   F1        1.0  0.2517340403216561  0.25173321232285717  0.7482667217037098  1.0000
  F   F2        1.0  0.7482664674658238  0.7482661756484931  0.25173375311800067  1.0000
  F   F3        1.0  0.7482670885165302  0.25173327491004127  0.25173384882684474  1.0000
  F   F4        1.0  0.25173362146483713  0.7482671477388618  0.7482655947342457  1.0000
  F   F5        1.0  0.25173384317400005  0.7482669347888788  0.25173325458145585  1.0000
  F   F6        1.0  0.7482669932226037  0.25173318705683045  0.7482659783125547  1.0000
