data_image0
_chemical_formula_structural       Y2ScBr6
_chemical_formula_sum              "Y2 Sc1 Br6"
_cell_length_a       7.283433113780235
_cell_length_b       7.283433328329871
_cell_length_c       7.2834331620154575
_cell_angle_alpha    59.9999993781182
_cell_angle_beta     60.00000011183971
_cell_angle_gamma    59.999998987254756

_space_group_name_H-M_alt    "P 1"
_space_group_IT_number       1

loop_
  _space_group_symop_operation_xyz
  'x, y, z'

loop_
  _atom_site_type_symbol
  _atom_site_label
  _atom_site_symmetry_multiplicity
  _atom_site_fract_x
  _atom_site_fract_y
  _atom_site_fract_z
  _atom_site_occupancy
  Y   Y1        1.0  0.2500000204707364  0.2499999645203241  0.2499999628268535  1.0000
  Y   Y2        1.0  0.750000024706642  0.7499999894092555  0.7499999124553784  1.0000
  Sc  Sc1       1.0  0.9999999207116932  1.950596667440662e-07  0.9999998803302677  1.0000
  Br  Br1       1.0  0.25109411236351786  0.2510941449439482  0.7489058622190904  1.0000
  Br  Br2       1.0  0.7489057900005385  0.7489058712029374  0.25109421399967896  1.0000
  Br  Br3       1.0  0.7489058600612082  0.2510941036504588  0.2510941289730912  1.0000
  Br  Br4       1.0  0.25109415060599954  0.7489058586868641  0.7489058280092987  1.0000
  Br  Br5       1.0  0.2510941001553023  0.748905895667906  0.2510941614100245  1.0000
  Br  Br6       1.0  0.7489060209774557  0.2510939825919696  0.7489060459902626  1.0000
