data_image0
_chemical_formula_structural       Y2SCl6
_chemical_formula_sum              "Y2 S1 Cl6"
_cell_length_a       7.037369576119451
_cell_length_b       7.037371316155759
_cell_length_c       7.037371430693949
_cell_angle_alpha    59.999986678804085
_cell_angle_beta     59.99998695942855
_cell_angle_gamma    60.000004616185244

_space_group_name_H-M_alt    "P 1"
_space_group_IT_number       1

loop_
  _space_group_symop_operation_xyz
  'x, y, z'

loop_
  _atom_site_type_symbol
  _atom_site_label
  _atom_site_symmetry_multiplicity
  _atom_site_fract_x
  _atom_site_fract_y
  _atom_site_fract_z
  _atom_site_occupancy
  Y   Y1        1.0  0.24999885363265473  0.2500007407908953  0.24999939953522332  1.0000
  Y   Y2        1.0  0.749999211255491  0.7499984406042561  0.7500018364812032  1.0000
  S   S1        1.0  1.3537414846167402e-07  7.13541293379436e-08  0.9999999293185072  1.0000
  Cl  Cl1       1.0  0.2617344353639662  0.26173497402973006  0.738265295471902  1.0000
  Cl  Cl2       1.0  0.7382659125146109  0.7382648060441789  0.26173409615002713  1.0000
  Cl  Cl3       1.0  0.738265494476342  0.26173569219707704  0.2617345722873913  1.0000
  Cl  Cl4       1.0  0.26173534445720825  0.7382648101196745  0.7382651690085215  1.0000
  Cl  Cl5       1.0  0.26173558529523555  0.7382649079360764  0.2617347521270075  1.0000
  Cl  Cl6       1.0  0.7382649688506651  0.26173552824757196  0.7382650623183696  1.0000
