data_image0
_chemical_formula_structural       Y2ScI6
_chemical_formula_sum              "Y2 Sc1 I6"
_cell_length_a       7.903284164650799
_cell_length_b       7.903284184041325
_cell_length_c       7.903284136159966
_cell_angle_alpha    59.999999721416685
_cell_angle_beta     59.99999930525679
_cell_angle_gamma    59.99999905889333

_space_group_name_H-M_alt    "P 1"
_space_group_IT_number       1

loop_
  _space_group_symop_operation_xyz
  'x, y, z'

loop_
  _atom_site_type_symbol
  _atom_site_label
  _atom_site_symmetry_multiplicity
  _atom_site_fract_x
  _atom_site_fract_y
  _atom_site_fract_z
  _atom_site_occupancy
  Y   Y1        1.0  0.24999998575828333  0.25000000126164246  0.25000010045259446  1.0000
  Y   Y2        1.0  0.7500000319068749  0.7499999464472953  0.7499999434886744  1.0000
  Sc  Sc1       1.0  2.9954982605605736e-09  2.1695320310753885e-08  2.6878790919332994e-08  1.0000
  I   I1        1.0  0.25346571494715514  0.2534657314150964  0.7465342824197296  1.0000
  I   I2        1.0  0.7465342706333623  0.7465342643334796  0.2534657408910728  1.0000
  I   I3        1.0  0.7465342456804933  0.25346571243741894  0.2534657250535019  1.0000
  I   I4        1.0  0.253465766641859  0.7465342600661709  0.7465342345093336  1.0000
  I   I5        1.0  0.2534657066921522  0.7465342767235701  0.2534657237753018  1.0000
  I   I6        1.0  0.7465342752420665  0.25346578256130176  0.7465342202439273  1.0000
