data_image0
_chemical_formula_structural       Y2SeI6
_chemical_formula_sum              "Y2 Se1 I6"
_cell_length_a       7.898839333056088
_cell_length_b       7.898839271439975
_cell_length_c       7.898839342119933
_cell_angle_alpha    60.00000030155907
_cell_angle_beta     59.99999999113738
_cell_angle_gamma    60.00000026683522

_space_group_name_H-M_alt    "P 1"
_space_group_IT_number       1

loop_
  _space_group_symop_operation_xyz
  'x, y, z'

loop_
  _atom_site_type_symbol
  _atom_site_label
  _atom_site_symmetry_multiplicity
  _atom_site_fract_x
  _atom_site_fract_y
  _atom_site_fract_z
  _atom_site_occupancy
  Y   Y1        1.0  0.25000004581819896  0.24999999316667867  0.24999995497117505  1.0000
  Y   Y2        1.0  0.7499999745672856  0.7500000120613296  0.7500000212291665  1.0000
  Se  Se1       1.0  2.2799468279458266e-08  0.9999999798430089  0.999999988550691  1.0000
  I   I1        1.0  0.26601367085170335  0.26601362507525395  0.7339863656880549  1.0000
  I   I2        1.0  0.7339863413681378  0.7339863739506031  0.266013630356272  1.0000
  I   I3        1.0  0.7339863168982338  0.26601364808198547  0.2660136770737184  1.0000
  I   I4        1.0  0.2660136574018974  0.7339863462922583  0.7339863567143843  1.0000
  I   I5        1.0  0.26601365873240873  0.7339863462746923  0.2660136451446739  1.0000
  I   I6        1.0  0.7339863126287858  0.2660136744586935  0.7339863541451679  1.0000
