data_image0
_chemical_formula_structural       Y2SeCl6
_chemical_formula_sum              "Y2 Se1 Cl6"
_cell_length_a       7.079348848366911
_cell_length_b       7.079348980733578
_cell_length_c       7.079348558633279
_cell_angle_alpha    60.00000125221175
_cell_angle_beta     60.00000066624179
_cell_angle_gamma    59.99999807821662

_space_group_name_H-M_alt    "P 1"
_space_group_IT_number       1

loop_
  _space_group_symop_operation_xyz
  'x, y, z'

loop_
  _atom_site_type_symbol
  _atom_site_label
  _atom_site_symmetry_multiplicity
  _atom_site_fract_x
  _atom_site_fract_y
  _atom_site_fract_z
  _atom_site_occupancy
  Y   Y1        1.0  0.2500001242034505  0.2500004531506679  0.24999967062061698  1.0000
  Y   Y2        1.0  0.7500000264594703  0.7500003231672165  0.7499993612403298  1.0000
  Se  Se1       1.0  0.9999999965258901  0.9999998685181217  1.6353203066342994e-07  1.0000
  Cl  Cl1       1.0  0.2556689867318452  0.2556690525982042  0.7443310385480253  1.0000
  Cl  Cl2       1.0  0.7443310564270735  0.744330803346535  0.2556692149437351  1.0000
  Cl  Cl3       1.0  0.7443309356394605  0.25566889565344797  0.2556691446434123  1.0000
  Cl  Cl4       1.0  0.25566904305069793  0.7443309481811208  0.744331099110796  1.0000
  Cl  Cl5       1.0  0.2556689122957521  0.7443307242674978  0.2556691302958799  1.0000
  Cl  Cl6       1.0  0.7443309048211663  0.2556689534847046  0.7443312236088782  1.0000
