data_image0
_chemical_formula_structural       Y2SeF6
_chemical_formula_sum              "Y2 Se1 F6"
_cell_length_a       5.525501779268688
_cell_length_b       5.525502533186039
_cell_length_c       5.525501567662508
_cell_angle_alpha    60.00000078362655
_cell_angle_beta     59.99999654523085
_cell_angle_gamma    60.00000120436788

_space_group_name_H-M_alt    "P 1"
_space_group_IT_number       1

loop_
  _space_group_symop_operation_xyz
  'x, y, z'

loop_
  _atom_site_type_symbol
  _atom_site_label
  _atom_site_symmetry_multiplicity
  _atom_site_fract_x
  _atom_site_fract_y
  _atom_site_fract_z
  _atom_site_occupancy
  Y   Y1        1.0  0.24999981417607703  0.25000030130217815  0.24999980918916706  1.0000
  Y   Y2        1.0  0.750000195308104  0.7499996737317212  0.750000381132221  1.0000
  Se  Se1       1.0  8.715809519333099e-08  0.9999999955669382  0.9999999242514617  1.0000
  F   F1        1.0  0.28511700846295107  0.28511747804923127  0.7148827688024244  1.0000
  F   F2        1.0  0.7148830701935569  0.7148825590475535  0.28511698127472834  1.0000
  F   F3        1.0  0.7148828962773958  0.2851176905102765  0.2851169410204964  1.0000
  F   F4        1.0  0.285117060390339  0.7148824241650921  0.7148830086212172  1.0000
  F   F5        1.0  0.28511745616335066  0.7148825583170803  0.28511717922604224  1.0000
  F   F6        1.0  0.7148824547867804  0.2851173236225194  0.714882929550063  1.0000
