data_image0
_chemical_formula_structural       Y2SeBr6
_chemical_formula_sum              "Y2 Se1 Br6"
_cell_length_a       7.408938984087777
_cell_length_b       7.408938777414886
_cell_length_c       7.408938788926698
_cell_angle_alpha    60.00000180675959
_cell_angle_beta     60.00000046635749
_cell_angle_gamma    59.99999961109828

_space_group_name_H-M_alt    "P 1"
_space_group_IT_number       1

loop_
  _space_group_symop_operation_xyz
  'x, y, z'

loop_
  _atom_site_type_symbol
  _atom_site_label
  _atom_site_symmetry_multiplicity
  _atom_site_fract_x
  _atom_site_fract_y
  _atom_site_fract_z
  _atom_site_occupancy
  Y   Y1        1.0  0.2499999777608148  0.2500001666500014  0.24999990159357513  1.0000
  Y   Y2        1.0  0.7500000593421244  0.7500000189084304  0.7499996946604511  1.0000
  Se  Se1       1.0  0.9999999951677901  0.9999999537142146  7.819811455517549e-08  1.0000
  Br  Br1       1.0  0.25697707050912716  0.2569771188240584  0.7430229150490508  1.0000
  Br  Br2       1.0  0.7430229435185834  0.7430228601014055  0.2569771537351264  1.0000
  Br  Br3       1.0  0.7430228989536262  0.25697703228555685  0.25697713726445864  1.0000
  Br  Br4       1.0  0.25697712529230904  0.7430228739051008  0.7430230167668469  1.0000
  Br  Br5       1.0  0.25697702246933896  0.7430228844127478  0.256977175302636  1.0000
  Br  Br6       1.0  0.743022911066172  0.25697709285965337  0.7430229399530565  1.0000
