data_image0
_chemical_formula_structural       Y2SF6
_chemical_formula_sum              "Y2 S1 F6"
_cell_length_a       5.151660514055617
_cell_length_b       5.151661310288277
_cell_length_c       5.151660267457938
_cell_angle_alpha    60.000012251549784
_cell_angle_beta     60.0000069436481
_cell_angle_gamma    60.00000936170926

_space_group_name_H-M_alt    "P 1"
_space_group_IT_number       1

loop_
  _space_group_symop_operation_xyz
  'x, y, z'

loop_
  _atom_site_type_symbol
  _atom_site_label
  _atom_site_symmetry_multiplicity
  _atom_site_fract_x
  _atom_site_fract_y
  _atom_site_fract_z
  _atom_site_occupancy
  Y   Y1        1.0  0.2499997401392693  0.24999963564259098  0.2499996894974587  1.0000
  Y   Y2        1.0  0.7500000824998079  0.74999903055143  0.7499985581694917  1.0000
  S   S1        1.0  4.489825816831885e-08  0.9999998787537167  6.729083617695716e-08  1.0000
  F   F1        1.0  0.27425762233261763  0.27425914598075724  0.7257415263764387  1.0000
  F   F2        1.0  0.7257420318074186  0.7257413436624398  0.27425948489082513  1.0000
  F   F3        1.0  0.7257417476306626  0.27425838026275173  0.2742581991557756  1.0000
  F   F4        1.0  0.27425921863432984  0.7257412392600265  0.7257421718269297  1.0000
  F   F5        1.0  0.2742579383224542  0.7257417525044524  0.2742586435250124  1.0000
  F   F6        1.0  0.725741669866298  0.27425954069254177  0.7257417715353864  1.0000
