data_image0
_chemical_formula_structural       Y2SI6
_chemical_formula_sum              "Y2 S1 I6"
_cell_length_a       7.779751650469784
_cell_length_b       7.7797516873038814
_cell_length_c       7.779751777290739
_cell_angle_alpha    59.99999987503063
_cell_angle_beta     59.999999443488804
_cell_angle_gamma    59.9999991657965

_space_group_name_H-M_alt    "P 1"
_space_group_IT_number       1

loop_
  _space_group_symop_operation_xyz
  'x, y, z'

loop_
  _atom_site_type_symbol
  _atom_site_label
  _atom_site_symmetry_multiplicity
  _atom_site_fract_x
  _atom_site_fract_y
  _atom_site_fract_z
  _atom_site_occupancy
  Y   Y1        1.0  0.250000042074362  0.25000001374414227  0.24999994058436087  1.0000
  Y   Y2        1.0  0.7500000416369491  0.7500000144697965  0.7500000419571371  1.0000
  S   S1        1.0  0.9999999570316755  2.2039814414071627e-08  0.9999999243432555  1.0000
  I   I1        1.0  0.26405256465139665  0.2640525881215702  0.7359474835693343  1.0000
  I   I2        1.0  0.7359474180571223  0.7359474180525551  0.2640525592080782  1.0000
  I   I3        1.0  0.735947419514776  0.26405252984067923  0.2640526266667227  1.0000
  I   I4        1.0  0.26405257022655393  0.735947392897006  0.7359474196070266  1.0000
  I   I5        1.0  0.26405258052234054  0.7359474513102312  0.2640525761255276  1.0000
  I   I6        1.0  0.7359474002517693  0.2640525784779809  0.7359474365312253  1.0000
