data_image0
_chemical_formula_structural       Y2SnI6
_chemical_formula_sum              "Y2 Sn1 I6"
_cell_length_a       7.986032575163732
_cell_length_b       7.986032530448092
_cell_length_c       7.98603255990831
_cell_angle_alpha    59.99999985147762
_cell_angle_beta     59.99999954645407
_cell_angle_gamma    60.00000045840712

_space_group_name_H-M_alt    "P 1"
_space_group_IT_number       1

loop_
  _space_group_symop_operation_xyz
  'x, y, z'

loop_
  _atom_site_type_symbol
  _atom_site_label
  _atom_site_symmetry_multiplicity
  _atom_site_fract_x
  _atom_site_fract_y
  _atom_site_fract_z
  _atom_site_occupancy
  Y   Y1        1.0  0.2500000238136944  0.24999997897479806  0.25000002137666955  1.0000
  Y   Y2        1.0  0.7500000095730679  0.7499999967351316  0.7500000739239515  1.0000
  Sn  Sn1       1.0  1.8285498568444014e-08  1.5336088205630972e-09  0.9999999950991911  1.0000
  I   I1        1.0  0.2620423097745552  0.26204229995954453  0.7379576640161596  1.0000
  I   I2        1.0  0.7379576631324805  0.7379576880192539  0.2620422976144256  1.0000
  I   I3        1.0  0.7379576804013885  0.2620423202173234  0.26204227924728246  1.0000
  I   I4        1.0  0.26204231409139206  0.7379576984336487  0.7379576825502543  1.0000
  I   I5        1.0  0.2620423096747527  0.7379577191178178  0.2620422919673553  1.0000
  I   I6        1.0  0.7379576776762357  0.2620422949323281  0.7379576882233527  1.0000
