data_image0
_chemical_formula_structural       Y2SnBr6
_chemical_formula_sum              "Y2 Sn1 Br6"
_cell_length_a       7.398293094335873
_cell_length_b       7.398293289220997
_cell_length_c       7.3982933113540845
_cell_angle_alpha    60.000000459383905
_cell_angle_beta     60.00000073838453
_cell_angle_gamma    60.00000034716067

_space_group_name_H-M_alt    "P 1"
_space_group_IT_number       1

loop_
  _space_group_symop_operation_xyz
  'x, y, z'

loop_
  _atom_site_type_symbol
  _atom_site_label
  _atom_site_symmetry_multiplicity
  _atom_site_fract_x
  _atom_site_fract_y
  _atom_site_fract_z
  _atom_site_occupancy
  Y   Y1        1.0  0.24999995403502634  0.24999993532337436  0.25000012101331354  1.0000
  Y   Y2        1.0  0.7499999482744008  0.7500000344211784  0.7500000097386059  1.0000
  Sn  Sn1       1.0  0.9999999862371333  0.9999999851010182  0.9999999886493253  1.0000
  Br  Br1       1.0  0.2603468739712313  0.26034677653541183  0.7396531736176339  1.0000
  Br  Br2       1.0  0.7396532056974756  0.7396532230071039  0.26034676704922877  1.0000
  Br  Br3       1.0  0.7396531617870005  0.2603468205205614  0.2603467972279044  1.0000
  Br  Br4       1.0  0.2603468096045418  0.7396532369624398  0.7396531861789167  1.0000
  Br  Br5       1.0  0.2603468022618784  0.7396532155027065  0.2603467915522498  1.0000
  Br  Br6       1.0  0.7396532603330772  0.260346779073482  0.7396531587829887  1.0000
