data_image0
_chemical_formula_structural       Y2SnF6
_chemical_formula_sum              "Y2 Sn1 F6"
_cell_length_a       5.7734720241504185
_cell_length_b       5.773470633570818
_cell_length_c       5.773470994157189
_cell_angle_alpha    60.00000076189401
_cell_angle_beta     60.00000559861537
_cell_angle_gamma    60.000002462140785

_space_group_name_H-M_alt    "P 1"
_space_group_IT_number       1

loop_
  _space_group_symop_operation_xyz
  'x, y, z'

loop_
  _atom_site_type_symbol
  _atom_site_label
  _atom_site_symmetry_multiplicity
  _atom_site_fract_x
  _atom_site_fract_y
  _atom_site_fract_z
  _atom_site_occupancy
  Y   Y1        1.0  0.2500001927854895  0.2499992892432213  0.2500001915159047  1.0000
  Y   Y2        1.0  0.7499999681236076  0.7499994884273924  0.7500002944831579  1.0000
  Sn  Sn1       1.0  0.9999999967106721  0.9999997878667846  7.653418146475448e-08  1.0000
  F   F1        1.0  0.26755188090106213  0.26755178601048435  0.7324482038390709  1.0000
  F   F2        1.0  0.7324478118591884  0.7324484681072755  0.26755185768564893  1.0000
  F   F3        1.0  0.732447887464395  0.26755216808611126  0.2675515746870262  1.0000
  F   F4        1.0  0.26755208357801086  0.7324482111902502  0.7324479508296761  1.0000
  F   F5        1.0  0.2675521379339879  0.7324485563811047  0.26755166987454837  1.0000
  F   F6        1.0  0.7324480600521813  0.2675522280697312  0.7324482098903858  1.0000
