data_image0
_chemical_formula_structural       Y2TiI6
_chemical_formula_sum              "Y2 Ti1 I6"
_cell_length_a       7.896753424693483
_cell_length_b       7.8967534522000795
_cell_length_c       7.896753480733771
_cell_angle_alpha    59.99999939903456
_cell_angle_beta     59.999999229467
_cell_angle_gamma    60.00000096429578

_space_group_name_H-M_alt    "P 1"
_space_group_IT_number       1

loop_
  _space_group_symop_operation_xyz
  'x, y, z'

loop_
  _atom_site_type_symbol
  _atom_site_label
  _atom_site_symmetry_multiplicity
  _atom_site_fract_x
  _atom_site_fract_y
  _atom_site_fract_z
  _atom_site_occupancy
  Y   Y1        1.0  0.25000002552129547  0.24999996050977724  0.24999999361901334  1.0000
  Y   Y2        1.0  0.749999960557205  0.7499999838918543  0.7499999256283033  1.0000
  Ti  Ti1       1.0  0.9999999812568868  0.9999999860414737  3.914499732909506e-08  1.0000
  I   I1        1.0  0.251786756202057  0.2517867757764132  0.7482132421129526  1.0000
  I   I2        1.0  0.7482132619115263  0.7482132523763746  0.25178678893123174  1.0000
  I   I3        1.0  0.7482132304388717  0.251786774839044  0.25178678839175606  1.0000
  I   I4        1.0  0.2517868009388544  0.7482132222947974  0.7482132072078183  1.0000
  I   I5        1.0  0.2517867657851148  0.7482132612218213  0.2517867891282096  1.0000
  I   I6        1.0  0.7482132124929944  0.25178678554233386  0.7482132284675073  1.0000
