data_image0
_chemical_formula_structural       Y2TiF6
_chemical_formula_sum              "Y2 Ti1 F6"
_cell_length_a       5.757077098056562
_cell_length_b       5.757076765057033
_cell_length_c       5.75708182121698
_cell_angle_alpha    60.000028757157445
_cell_angle_beta     60.000055928434975
_cell_angle_gamma    60.000001948945105

_space_group_name_H-M_alt    "P 1"
_space_group_IT_number       1

loop_
  _space_group_symop_operation_xyz
  'x, y, z'

loop_
  _atom_site_type_symbol
  _atom_site_label
  _atom_site_symmetry_multiplicity
  _atom_site_fract_x
  _atom_site_fract_y
  _atom_site_fract_z
  _atom_site_occupancy
  Y   Y1        1.0  0.24999831237441414  0.2500062017925662  0.2500204265889292  1.0000
  Y   Y2        1.0  0.7499962960125509  0.750014095326872  0.7500017532098047  1.0000
  Ti  Ti1       1.0  1.3534155268827443e-06  4.441956374837368e-06  5.801168367924668e-06  1.0000
  F   F1        1.0  0.2494405502501639  0.24943113112061277  0.7505500250163123  1.0000
  F   F2        1.0  0.7505690879929422  0.7505643118866181  0.24943002571552228  1.0000
  F   F3        1.0  0.7505532429058577  0.24943370153543687  0.24943975697635956  1.0000
  F   F4        1.0  0.24942848504805734  0.7505755715306701  0.7505586086685127  1.0000
  F   F5        1.0  0.24943767959243177  0.7505490039784379  0.24943512446019786  1.0000
  F   F6        1.0  0.7505749778720507  0.2494216466301485  0.750558354069343  1.0000
