data_image0
_chemical_formula_structural       Y2TiCl6
_chemical_formula_sum              "Y2 Ti1 Cl6"
_cell_length_a       6.672869737114782
_cell_length_b       6.672869356838735
_cell_length_c       6.672869797269642
_cell_angle_alpha    59.99999625760491
_cell_angle_beta     60.00000010676712
_cell_angle_gamma    59.99999884612903

_space_group_name_H-M_alt    "P 1"
_space_group_IT_number       1

loop_
  _space_group_symop_operation_xyz
  'x, y, z'

loop_
  _atom_site_type_symbol
  _atom_site_label
  _atom_site_symmetry_multiplicity
  _atom_site_fract_x
  _atom_site_fract_y
  _atom_site_fract_z
  _atom_site_occupancy
  Y   Y1        1.0  0.24999985941325192  0.25000106243658066  0.24999943968986107  1.0000
  Y   Y2        1.0  0.7499999778111123  0.7500002910332091  0.7500000664578694  1.0000
  Ti  Ti1       1.0  0.9999999810011722  0.9999999375960711  0.9999999462892267  1.0000
  Cl  Cl1       1.0  0.2538852746674987  0.2538850404927405  0.7461147656844577  1.0000
  Cl  Cl2       1.0  0.7461150723839524  0.7461146225647165  0.25388504452224897  1.0000
  Cl  Cl3       1.0  0.7461149828622106  0.25388505071130907  0.2538851432886458  1.0000
  Cl  Cl4       1.0  0.25388503292537284  0.7461145003861427  0.7461152287134669  1.0000
  Cl  Cl5       1.0  0.2538850592255307  0.7461146750257036  0.25388526166596553  1.0000
  Cl  Cl6       1.0  0.7461147905627247  0.2538848393635531  0.7461150813112224  1.0000
