data_image0
_chemical_formula_structural       Y2TiBr6
_chemical_formula_sum              "Y2 Ti1 Br6"
_cell_length_a       7.16479749962887
_cell_length_b       7.164797210484171
_cell_length_c       7.164797322319772
_cell_angle_alpha    59.99999879112193
_cell_angle_beta     60.00000025484969
_cell_angle_gamma    59.999999358476316

_space_group_name_H-M_alt    "P 1"
_space_group_IT_number       1

loop_
  _space_group_symop_operation_xyz
  'x, y, z'

loop_
  _atom_site_type_symbol
  _atom_site_label
  _atom_site_symmetry_multiplicity
  _atom_site_fract_x
  _atom_site_fract_y
  _atom_site_fract_z
  _atom_site_occupancy
  Y   Y1        1.0  0.2500000264398642  0.249999936975653  0.24999987478969699  1.0000
  Y   Y2        1.0  0.7500000362440584  0.7499998724650772  0.7500001622572531  1.0000
  Ti  Ti1       1.0  0.9999999574300509  6.837568921476277e-09  0.9999999913476453  1.0000
  Br  Br1       1.0  0.2517868776508936  0.25178702168791317  0.7482131955617676  1.0000
  Br  Br2       1.0  0.7482130355199162  0.7482131347594441  0.25178693115966466  1.0000
  Br  Br3       1.0  0.748213130300211  0.25178691530591474  0.25178682690128523  1.0000
  Br  Br4       1.0  0.2517869468045169  0.7482130394331582  0.7482130646875841  1.0000
  Br  Br5       1.0  0.2517868837883503  0.7482131209049369  0.25178689712032537  1.0000
  Br  Br6       1.0  0.7482130985373637  0.2517869586197703  0.7482130506465908  1.0000
