data_image0
_chemical_formula_structural       Y2VBr6
_chemical_formula_sum              "Y2 V1 Br6"
_cell_length_a       7.139179397939574
_cell_length_b       7.139179322328635
_cell_length_c       7.139179484856043
_cell_angle_alpha    59.99999947748472
_cell_angle_beta     59.99999830129703
_cell_angle_gamma    59.999999217829945

_space_group_name_H-M_alt    "P 1"
_space_group_IT_number       1

loop_
  _space_group_symop_operation_xyz
  'x, y, z'

loop_
  _atom_site_type_symbol
  _atom_site_label
  _atom_site_symmetry_multiplicity
  _atom_site_fract_x
  _atom_site_fract_y
  _atom_site_fract_z
  _atom_site_occupancy
  Y   Y1        1.0  0.25000021939716327  0.24999991453532397  0.2500000833593128  1.0000
  Y   Y2        1.0  0.7499997300846748  0.7500000678404097  0.7499999847220538  1.0000
  V   V1        1.0  2.5780503435138538e-08  5.146578889316094e-09  4.756891224728941e-08  1.0000
  Br  Br1       1.0  0.2506546382286068  0.25065453390317455  0.749345341199629  1.0000
  Br  Br2       1.0  0.7493453906046094  0.7493454433259801  0.25065462674688327  1.0000
  Br  Br3       1.0  0.7493453251979724  0.25065459515082567  0.2506546314476964  1.0000
  Br  Br4       1.0  0.2506546942082668  0.7493453958025382  0.7493453357509211  1.0000
  Br  Br5       1.0  0.25065463251856485  0.749345386910361  0.2506545988666904  1.0000
  Br  Br6       1.0  0.7493453482323069  0.250654652077735  0.7493453580393605  1.0000
