data_image0
_chemical_formula_structural       Y2VCl6
_chemical_formula_sum              "Y2 V1 Cl6"
_cell_length_a       6.792502137061152
_cell_length_b       6.792502191469297
_cell_length_c       6.792502052765485
_cell_angle_alpha    60.00000421178824
_cell_angle_beta     60.00000385822308
_cell_angle_gamma    59.99999910590044

_space_group_name_H-M_alt    "P 1"
_space_group_IT_number       1

loop_
  _space_group_symop_operation_xyz
  'x, y, z'

loop_
  _atom_site_type_symbol
  _atom_site_label
  _atom_site_symmetry_multiplicity
  _atom_site_fract_x
  _atom_site_fract_y
  _atom_site_fract_z
  _atom_site_occupancy
  Y   Y1        1.0  0.2499994088528297  0.24999989736975553  0.2500003988941089  1.0000
  Y   Y2        1.0  0.7499996887656051  0.7499997984911251  0.7500003004998025  1.0000
  V   V1        1.0  1.572680210690903e-08  1.2621584038757038e-07  0.9999998878067591  1.0000
  Cl  Cl1       1.0  0.249437195828475  0.24943722086563985  0.7505628029392709  1.0000
  Cl  Cl2       1.0  0.7505631175347275  0.7505626985775359  0.2494371105416268  1.0000
  Cl  Cl3       1.0  0.750563007786756  0.24943711149830022  0.24943708863882275  1.0000
  Cl  Cl4       1.0  0.24943727603761018  0.7505630495580599  0.7505626981939449  1.0000
  Cl  Cl5       1.0  0.24943720816893292  0.7505628286428399  0.2494371022389768  1.0000
  Cl  Cl6       1.0  0.7505630653879172  0.24943727651793032  0.7505626087316869  1.0000
