data_image0
_chemical_formula_structural       Y2VF6
_chemical_formula_sum              "Y2 V1 F6"
_cell_length_a       9.008538316774333
_cell_length_b       6.262970534226912
_cell_length_c       6.8026241538610615
_cell_angle_alpha    60.98520593120735
_cell_angle_beta     51.35194381275356
_cell_angle_gamma    43.75530627455534

_space_group_name_H-M_alt    "P 1"
_space_group_IT_number       1

loop_
  _space_group_symop_operation_xyz
  'x, y, z'

loop_
  _atom_site_type_symbol
  _atom_site_label
  _atom_site_symmetry_multiplicity
  _atom_site_fract_x
  _atom_site_fract_y
  _atom_site_fract_z
  _atom_site_occupancy
  Y   Y1        1.0  0.46319658350441895  0.29030084718156485  0.06552998749261216  1.0000
  Y   Y2        1.0  0.666136831209198  0.7867348535188803  0.5708471317028971  1.0000
  V   V1        1.0  0.9707792912578694  0.0731482628513284  0.016633977553541054  1.0000
  F   F1        1.0  0.5649465894586801  0.047109630472526934  0.8110063494485077  1.0000
  F   F2        1.0  0.5452914865815758  0.8703445039769601  0.3245052470649742  1.0000
  F   F3        1.0  0.6022664041613336  0.23046495214020485  0.28821726457581825  1.0000
  F   F4        1.0  0.3428168829265047  0.7904468249052565  0.8610452978862417  1.0000
  F   F5        1.0  0.05991252887398873  0.5923400425340644  0.2852321912441238  1.0000
  F   F6        1.0  0.7846525374123036  0.31910767462087336  0.7769865892214647  1.0000
