data_image0
_chemical_formula_structural       Y2VI6
_chemical_formula_sum              "Y2 V1 I6"
_cell_length_a       7.78018394590508
_cell_length_b       7.780183932878836
_cell_length_c       7.780183908501908
_cell_angle_alpha    59.99999970739909
_cell_angle_beta     60.00000021898555
_cell_angle_gamma    60.00000034157816

_space_group_name_H-M_alt    "P 1"
_space_group_IT_number       1

loop_
  _space_group_symop_operation_xyz
  'x, y, z'

loop_
  _atom_site_type_symbol
  _atom_site_label
  _atom_site_symmetry_multiplicity
  _atom_site_fract_x
  _atom_site_fract_y
  _atom_site_fract_z
  _atom_site_occupancy
  Y   Y1        1.0  0.2500000315694324  0.24999985072868636  0.2500001065112112  1.0000
  Y   Y2        1.0  0.7500000458904666  0.7499998811907223  0.7499999030971342  1.0000
  V   V1        1.0  0.9999999940479302  2.6761144729846763e-08  0.9999999908807791  1.0000
  I   I1        1.0  0.24988002248066277  0.24988010326524032  0.7501199341138913  1.0000
  I   I2        1.0  0.7501199182360961  0.7501199765490492  0.24988007788518224  1.0000
  I   I3        1.0  0.7501199217967235  0.249880070955926  0.2498800752820154  1.0000
  I   I4        1.0  0.24988007321904365  0.7501200151551038  0.750119894851334  1.0000
  I   I5        1.0  0.24988003768066994  0.7501199561222723  0.24988007431748743  1.0000
  I   I6        1.0  0.7501199560309997  0.24988012054364717  0.750119938464649  1.0000
