data_image0
_chemical_formula_structural       Y2ZnI6
_chemical_formula_sum              "Y2 Zn1 I6"
_cell_length_a       7.732247239470253
_cell_length_b       7.732247242873748
_cell_length_c       7.732247263789299
_cell_angle_alpha    60.00000018307598
_cell_angle_beta     59.99999979987137
_cell_angle_gamma    59.999999661012225

_space_group_name_H-M_alt    "P 1"
_space_group_IT_number       1

loop_
  _space_group_symop_operation_xyz
  'x, y, z'

loop_
  _atom_site_type_symbol
  _atom_site_label
  _atom_site_symmetry_multiplicity
  _atom_site_fract_x
  _atom_site_fract_y
  _atom_site_fract_z
  _atom_site_occupancy
  Y   Y1        1.0  0.2499999856755849  0.2500000527677074  0.24999999767944134  1.0000
  Y   Y2        1.0  0.75000001009666  0.7499999856531965  0.7499999972170756  1.0000
  Zn  Zn1       1.0  1.0559629561581298e-09  0.9999999968321113  0.9999999557909851  1.0000
  I   I1        1.0  0.25248641842170166  0.2524864478304213  0.7475135486146127  1.0000
  I   I2        1.0  0.7475135712270254  0.747513546240043  0.2524864262539051  1.0000
  I   I3        1.0  0.7475135380860095  0.2524864478740011  0.25248644742033477  1.0000
  I   I4        1.0  0.2524864074245369  0.7475136158900113  0.7475135741616131  1.0000
  I   I5        1.0  0.25248645719797896  0.7475135128083211  0.2524864541897774  1.0000
  I   I6        1.0  0.74751361067992  0.2524863988970411  0.7475135951706698  1.0000
