data_image0
_chemical_formula_structural       Y2ZnBr6
_chemical_formula_sum              "Y2 Zn1 Br6"
_cell_length_a       7.086820169908196
_cell_length_b       7.086820496975041
_cell_length_c       7.086820349008657
_cell_angle_alpha    60.000001617593924
_cell_angle_beta     60.000001075737494
_cell_angle_gamma    60.00000021022674

_space_group_name_H-M_alt    "P 1"
_space_group_IT_number       1

loop_
  _space_group_symop_operation_xyz
  'x, y, z'

loop_
  _atom_site_type_symbol
  _atom_site_label
  _atom_site_symmetry_multiplicity
  _atom_site_fract_x
  _atom_site_fract_y
  _atom_site_fract_z
  _atom_site_occupancy
  Y   Y1        1.0  0.249999894117744  0.25000001786651893  0.25000009106766585  1.0000
  Y   Y2        1.0  0.7500000988152181  0.7499998600410647  0.7499999388021861  1.0000
  Zn  Zn1       1.0  7.486883572954374e-08  0.9999999758051881  0.9999999492637279  1.0000
  Br  Br1       1.0  0.2509086522286797  0.2509087126321303  0.749091307570493  1.0000
  Br  Br2       1.0  0.7490913331475819  0.7490913052597145  0.2509086998287513  1.0000
  Br  Br3       1.0  0.7490913083570261  0.2509086944692132  0.25090864972832133  1.0000
  Br  Br4       1.0  0.25090866289711644  0.7490913804532565  0.7490913475052307  1.0000
  Br  Br5       1.0  0.2509086487766505  0.7490913598071183  0.2509086699520268  1.0000
  Br  Br6       1.0  0.7490913315957259  0.2509086926487416  0.7490913395999935  1.0000
