data_image0
_chemical_formula_structural       Y2ZnF6
_chemical_formula_sum              "Y2 Zn1 F6"
_cell_length_a       5.57487602628546
_cell_length_b       5.5748769726248
_cell_length_c       5.5748758507552925
_cell_angle_alpha    59.999999754488734
_cell_angle_beta     60.00000467200548
_cell_angle_gamma    60.00000136651483

_space_group_name_H-M_alt    "P 1"
_space_group_IT_number       1

loop_
  _space_group_symop_operation_xyz
  'x, y, z'

loop_
  _atom_site_type_symbol
  _atom_site_label
  _atom_site_symmetry_multiplicity
  _atom_site_fract_x
  _atom_site_fract_y
  _atom_site_fract_z
  _atom_site_occupancy
  Y   Y1        1.0  0.250000075946719  0.24999944892180603  0.25000032907619624  1.0000
  Y   Y2        1.0  0.7500002631654606  0.7500002602655839  0.7499995536127043  1.0000
  Zn  Zn1       1.0  0.9999999965897882  0.999999997803095  5.4822654018760744e-08  1.0000
  F   F1        1.0  0.25426512091613757  0.25426529542608445  0.7457346939242209  1.0000
  F   F2        1.0  0.7457347571345946  0.7457348773072403  0.25426551936835395  1.0000
  F   F3        1.0  0.7457349687742076  0.25426519869351155  0.2542652761941001  1.0000
  F   F4        1.0  0.2542648289353515  0.7457350597189595  0.7457345613270023  1.0000
  F   F5        1.0  0.25426512599529727  0.745735028025645  0.2542653334837018  1.0000
  F   F6        1.0  0.7457349011286903  0.2542648217633645  0.7457346815362788  1.0000
