data_image0
_chemical_formula_structural       Y2ZnCl6
_chemical_formula_sum              "Y2 Zn1 Cl6"
_cell_length_a       6.716608257728489
_cell_length_b       6.716608307401981
_cell_length_c       6.716608038697417
_cell_angle_alpha    59.99999988255375
_cell_angle_beta     59.999998924061344
_cell_angle_gamma    60.00000017854405

_space_group_name_H-M_alt    "P 1"
_space_group_IT_number       1

loop_
  _space_group_symop_operation_xyz
  'x, y, z'

loop_
  _atom_site_type_symbol
  _atom_site_label
  _atom_site_symmetry_multiplicity
  _atom_site_fract_x
  _atom_site_fract_y
  _atom_site_fract_z
  _atom_site_occupancy
  Y   Y1        1.0  0.2499998821188148  0.2500001367011229  0.24999989605176812  1.0000
  Y   Y2        1.0  0.7500001488495336  0.7499999031822271  0.7500001668002857  1.0000
  Zn  Zn1       1.0  2.405051576409339e-08  3.099877420052035e-08  4.3939997935195357e-08  1.0000
  Cl  Cl1       1.0  0.24900318822549225  0.24900328129881583  0.7509967884425282  1.0000
  Cl  Cl2       1.0  0.7509968063631743  0.7509967129981022  0.2490031322644341  1.0000
  Cl  Cl3       1.0  0.750996754689844  0.2490033069109768  0.24900321915329052  1.0000
  Cl  Cl4       1.0  0.24900321504980752  0.7509966381525927  0.75099677730487  1.0000
  Cl  Cl5       1.0  0.24900322471536918  0.7509967553191016  0.24900330433237955  1.0000
  Cl  Cl6       1.0  0.7509967542964624  0.24900324444818803  0.7509966705597573  1.0000
