data_image0
_chemical_formula_structural       Zn2AuI6
_chemical_formula_sum              "Zn2 Au1 I6"
_cell_length_a       7.725266128586052
_cell_length_b       7.725266154411167
_cell_length_c       7.725266091750192
_cell_angle_alpha    60.00000038922588
_cell_angle_beta     59.99999995921643
_cell_angle_gamma    60.00000044334847

_space_group_name_H-M_alt    "P 1"
_space_group_IT_number       1

loop_
  _space_group_symop_operation_xyz
  'x, y, z'

loop_
  _atom_site_type_symbol
  _atom_site_label
  _atom_site_symmetry_multiplicity
  _atom_site_fract_x
  _atom_site_fract_y
  _atom_site_fract_z
  _atom_site_occupancy
  Zn  Zn1       1.0  0.2499999992370544  0.2499999969749199  0.2499999996924298  1.0000
  Zn  Zn2       1.0  0.7499999965635772  0.7499999988516377  0.7500000021599124  1.0000
  Au  Au1       1.0  1.8418268617138183e-09  7.926878046657474e-09  0.9999999601653952  1.0000
  I   I1        1.0  0.2621037412759511  0.26210371155272544  0.737896269322022  1.0000
  I   I2        1.0  0.7378962696530835  0.7378962747615786  0.26210374007787585  1.0000
  I   I3        1.0  0.7378962634112013  0.26210376127487794  0.26210373054099956  1.0000
  I   I4        1.0  0.2621037234056352  0.7378962615030652  0.7378962817443542  1.0000
  I   I5        1.0  0.26210374536319225  0.7378962478109945  0.2621037487399912  1.0000
  I   I6        1.0  0.737896266094301  0.2621037369179339  0.737896262482819  1.0000
