data_image0
_chemical_formula_structural       Zn2AgI6
_chemical_formula_sum              "Zn2 Ag1 I6"
_cell_length_a       7.704078450647042
_cell_length_b       7.704078444697009
_cell_length_c       7.704078301246249
_cell_angle_alpha    59.99999990589783
_cell_angle_beta     59.9999995245557
_cell_angle_gamma    60.000000564965205

_space_group_name_H-M_alt    "P 1"
_space_group_IT_number       1

loop_
  _space_group_symop_operation_xyz
  'x, y, z'

loop_
  _atom_site_type_symbol
  _atom_site_label
  _atom_site_symmetry_multiplicity
  _atom_site_fract_x
  _atom_site_fract_y
  _atom_site_fract_z
  _atom_site_occupancy
  Zn  Zn1       1.0  0.2500000062826969  0.2499999952132367  0.24999999312325277  1.0000
  Zn  Zn2       1.0  0.749999996093077  0.7499999999473315  0.7499999926795511  1.0000
  Ag  Ag1       1.0  1.4988172384255302e-08  2.090755392185108e-16  0.9999999691416651  1.0000
  I   I1        1.0  0.26085252511001106  0.26085251981118707  0.7391474659878368  1.0000
  I   I2        1.0  0.7391474856378356  0.7391474817083239  0.2608525358137078  1.0000
  I   I3        1.0  0.7391475031448719  0.26085249910833597  0.2608525320309679  1.0000
  I   I4        1.0  0.26085249297847635  0.7391474833343462  0.7391475060914475  1.0000
  I   I5        1.0  0.2608524870777342  0.7391474947039927  0.26085253335339037  1.0000
  I   I6        1.0  0.7391474842462726  0.2608525306615538  0.7391474736410288  1.0000
