data_image0
_chemical_formula_structural       Zn2AgCl6
_chemical_formula_sum              "Zn2 Ag1 Cl6"
_cell_length_a       6.969397598188278
_cell_length_b       6.969397378251168
_cell_length_c       6.969397401709601
_cell_angle_alpha    60.000000155201064
_cell_angle_beta     59.9999989351359
_cell_angle_gamma    59.99999990285914

_space_group_name_H-M_alt    "P 1"
_space_group_IT_number       1

loop_
  _space_group_symop_operation_xyz
  'x, y, z'

loop_
  _atom_site_type_symbol
  _atom_site_label
  _atom_site_symmetry_multiplicity
  _atom_site_fract_x
  _atom_site_fract_y
  _atom_site_fract_z
  _atom_site_occupancy
  Zn  Zn1       1.0  0.25000012415131423  0.24999984083922935  0.25000014898713696  1.0000
  Zn  Zn2       1.0  0.7499997813324518  0.7499999091276784  0.750000044151984  1.0000
  Ag  Ag1       1.0  5.154208587813351e-09  1.9330499787503186e-08  0.9999999691046701  1.0000
  Cl  Cl1       1.0  0.24784269289229222  0.24784271871755914  0.7521571830943716  1.0000
  Cl  Cl2       1.0  0.7521573104554153  0.7521573440519838  0.2478427186208034  1.0000
  Cl  Cl3       1.0  0.7521573176098667  0.24784266633254806  0.24784268135210438  1.0000
  Cl  Cl4       1.0  0.24784271253115087  0.7521574104955412  0.7521572587657573  1.0000
  Cl  Cl5       1.0  0.24784279376049345  0.7521573911066796  0.24784256512620748  1.0000
  Cl  Cl6       1.0  0.7521572677595123  0.24784269099336528  0.7521574470613717  1.0000
