data_image0
_chemical_formula_structural       Zn2AgBr6
_chemical_formula_sum              "Zn2 Ag1 Br6"
_cell_length_a       7.220778946719505
_cell_length_b       7.220778890873183
_cell_length_c       7.220778863426641
_cell_angle_alpha    60.00000030133138
_cell_angle_beta     60.00000102666228
_cell_angle_gamma    60.00000061417307

_space_group_name_H-M_alt    "P 1"
_space_group_IT_number       1

loop_
  _space_group_symop_operation_xyz
  'x, y, z'

loop_
  _atom_site_type_symbol
  _atom_site_label
  _atom_site_symmetry_multiplicity
  _atom_site_fract_x
  _atom_site_fract_y
  _atom_site_fract_z
  _atom_site_occupancy
  Zn  Zn1       1.0  0.24999999879142992  0.25000000893052476  0.25000001130123173  1.0000
  Zn  Zn2       1.0  0.7499999925469215  0.7499999759073879  0.7500000848026394  1.0000
  Ag  Ag1       1.0  1.006318981138085e-08  3.3922791712915433e-09  0.9999999544952852  1.0000
  Br  Br1       1.0  0.25463024119758665  0.2546302475144908  0.7453697415148766  1.0000
  Br  Br2       1.0  0.7453697483476204  0.7453697475002591  0.2546302202172854  1.0000
  Br  Br3       1.0  0.7453697198911763  0.2546302940620981  0.25463023329819096  1.0000
  Br  Br4       1.0  0.25463025241826753  0.7453697382677218  0.7453697391676999  1.0000
  Br  Br5       1.0  0.254630259686767  0.7453697452716556  0.25463025544288564  1.0000
  Br  Br6       1.0  0.7453697694654603  0.25463024126239664  0.7453697475066936  1.0000
