data_image0
_chemical_formula_structural       Zn2AuCl6
_chemical_formula_sum              "Zn2 Au1 Cl6"
_cell_length_a       6.967663266194792
_cell_length_b       6.967662919230569
_cell_length_c       6.967663029839902
_cell_angle_alpha    60.000000435345925
_cell_angle_beta     59.99999970064049
_cell_angle_gamma    59.99999759672255

_space_group_name_H-M_alt    "P 1"
_space_group_IT_number       1

loop_
  _space_group_symop_operation_xyz
  'x, y, z'

loop_
  _atom_site_type_symbol
  _atom_site_label
  _atom_site_symmetry_multiplicity
  _atom_site_fract_x
  _atom_site_fract_y
  _atom_site_fract_z
  _atom_site_occupancy
  Zn  Zn1       1.0  0.25000001794249394  0.24999982442018137  0.2500000557135179  1.0000
  Zn  Zn2       1.0  0.7499999404894258  0.7500000867172667  0.7499999974525067  1.0000
  Au  Au1       1.0  2.398816270886821e-08  0.9999999876957112  6.30477317466581e-08  1.0000
  Cl  Cl1       1.0  0.2501355024974718  0.2501355014009965  0.749864517295082  1.0000
  Cl  Cl2       1.0  0.7498644870684456  0.7498645152017899  0.2501355034513112  1.0000
  Cl  Cl3       1.0  0.7498645764662362  0.2501353714271307  0.25013543216263995  1.0000
  Cl  Cl4       1.0  0.25013545777880375  0.7498645906852289  0.7498645260349367  1.0000
  Cl  Cl5       1.0  0.2501354236353529  0.7498646599010802  0.25013542069869127  1.0000
  Cl  Cl6       1.0  0.7498645831375438  0.2501354393162203  0.7498644941640996  1.0000
