data_image0
_chemical_formula_structural       Zn2BeBr6
_chemical_formula_sum              "Zn2 Be1 Br6"
_cell_length_a       7.100206158643556
_cell_length_b       7.100206056659671
_cell_length_c       7.100206017471482
_cell_angle_alpha    60.000000571667705
_cell_angle_beta     60.00000119490636
_cell_angle_gamma    59.99999995803124

_space_group_name_H-M_alt    "P 1"
_space_group_IT_number       1

loop_
  _space_group_symop_operation_xyz
  'x, y, z'

loop_
  _atom_site_type_symbol
  _atom_site_label
  _atom_site_symmetry_multiplicity
  _atom_site_fract_x
  _atom_site_fract_y
  _atom_site_fract_z
  _atom_site_occupancy
  Zn  Zn1       1.0  0.2499999140373013  0.24999995978065578  0.250000022766873  1.0000
  Zn  Zn2       1.0  0.7499999638625363  0.7499998776170244  0.7500001737744802  1.0000
  Be  Be1       1.0  0.9999999952197766  0.9999999948251719  2.1607060903360812e-09  1.0000
  Br  Br1       1.0  0.24258585671847707  0.24258587605528154  0.7574141370758356  1.0000
  Br  Br2       1.0  0.7574141770064892  0.7574141476362108  0.24258581657714676  1.0000
  Br  Br3       1.0  0.7574142323273613  0.2425858996276357  0.2425857229310959  1.0000
  Br  Br4       1.0  0.24258582222651542  0.7574141689123672  0.7574142105588648  1.0000
  Br  Br5       1.0  0.24258584126912336  0.7574141814861397  0.24258576427905393  1.0000
  Br  Br6       1.0  0.757414199798091  0.24258588360397768  0.7574141678203117  1.0000
