data_image0
_chemical_formula_structural       Zn2BeI6
_chemical_formula_sum              "Zn2 Be1 I6"
_cell_length_a       7.657536080201333
_cell_length_b       7.657536023068381
_cell_length_c       7.657535943283751
_cell_angle_alpha    59.99999971508096
_cell_angle_beta     59.999999663415
_cell_angle_gamma    59.9999995673161

_space_group_name_H-M_alt    "P 1"
_space_group_IT_number       1

loop_
  _space_group_symop_operation_xyz
  'x, y, z'

loop_
  _atom_site_type_symbol
  _atom_site_label
  _atom_site_symmetry_multiplicity
  _atom_site_fract_x
  _atom_site_fract_y
  _atom_site_fract_z
  _atom_site_occupancy
  Zn  Zn1       1.0  0.2499999931305105  0.24999999166642856  0.25000001880909734  1.0000
  Zn  Zn2       1.0  0.7499999853918519  0.7500000293788223  0.74999996616582  1.0000
  Be  Be1       1.0  3.9221795939466387e-08  0.9999999728102317  1.749024199486506e-08  1.0000
  I   I1        1.0  0.2400000077255777  0.23999998819279333  0.7600000079280741  1.0000
  I   I2        1.0  0.7600000070785037  0.7600000280542627  0.23999999656446486  1.0000
  I   I3        1.0  0.7600000037806343  0.23999996129418077  0.24000003214191232  1.0000
  I   I4        1.0  0.24000001148080286  0.7600000309619036  0.7599999671406944  1.0000
  I   I5        1.0  0.2399999832718223  0.7599999944640489  0.2400000060899089  1.0000
  I   I6        1.0  0.7599999734391814  0.24000001058722065  0.7599999899522599  1.0000
