data_image0
_chemical_formula_structural       Zn2BeCl6
_chemical_formula_sum              "Zn2 Be1 Cl6"
_cell_length_a       6.515253068214551
_cell_length_b       6.515253262283478
_cell_length_c       6.515253587018522
_cell_angle_alpha    60.00000527153076
_cell_angle_beta     60.000001157954195
_cell_angle_gamma    60.00000126990262

_space_group_name_H-M_alt    "P 1"
_space_group_IT_number       1

loop_
  _space_group_symop_operation_xyz
  'x, y, z'

loop_
  _atom_site_type_symbol
  _atom_site_label
  _atom_site_symmetry_multiplicity
  _atom_site_fract_x
  _atom_site_fract_y
  _atom_site_fract_z
  _atom_site_occupancy
  Zn  Zn1       1.0  0.2500025266050255  0.2499979499360875  0.25000006844921274  1.0000
  Zn  Zn2       1.0  0.7500011981435216  0.7500002129704129  0.7500010403569952  1.0000
  Be  Be1       1.0  0.999999976526859  2.0865907952221628e-07  0.9999999350345151  1.0000
  Cl  Cl1       1.0  0.2435267231485001  0.24352727994149667  0.7564729833264736  1.0000
  Cl  Cl2       1.0  0.75647186111742  0.7564728154111778  0.24352701740086966  1.0000
  Cl  Cl3       1.0  0.756472156059043  0.24352740947101226  0.24352735697368022  1.0000
  Cl  Cl4       1.0  0.24352667857436788  0.7564733118588689  0.7564719078185773  1.0000
  Cl  Cl5       1.0  0.24352694085122673  0.7564731680594703  0.24352693164541067  1.0000
  Cl  Cl6       1.0  0.7564718651549844  0.243527660419697  0.7564727543437111  1.0000
