data_image0
_chemical_formula_structural       Zn2CdI6
_chemical_formula_sum              "Zn2 Cd1 I6"
_cell_length_a       7.927533803610448
_cell_length_b       7.927533692251607
_cell_length_c       7.927533787943575
_cell_angle_alpha    60.000000153375694
_cell_angle_beta     60.00000074834626
_cell_angle_gamma    59.99999960480758

_space_group_name_H-M_alt    "P 1"
_space_group_IT_number       1

loop_
  _space_group_symop_operation_xyz
  'x, y, z'

loop_
  _atom_site_type_symbol
  _atom_site_label
  _atom_site_symmetry_multiplicity
  _atom_site_fract_x
  _atom_site_fract_y
  _atom_site_fract_z
  _atom_site_occupancy
  Zn  Zn1       1.0  0.24999999175785576  0.24999999077595933  0.25000001687381396  1.0000
  Zn  Zn2       1.0  0.7499999971069523  0.749999998591611  0.7500000089129142  1.0000
  Cd  Cd1       1.0  4.978843634022416e-08  0.9999999860956705  0.9999999871036521  1.0000
  I   I1        1.0  0.2639099375108224  0.26390994380531246  0.7360900721572444  1.0000
  I   I2        1.0  0.7360900438212294  0.736090033202854  0.2639099560070054  1.0000
  I   I3        1.0  0.7360900503263639  0.2639099641594902  0.2639099287914414  1.0000
  I   I4        1.0  0.26390994966086656  0.7360900530167385  0.7360900510397931  1.0000
  I   I5        1.0  0.26390993653014494  0.7360900651813251  0.26390991453084894  1.0000
  I   I6        1.0  0.7360900494063639  0.263909950449978  0.7360900566996667  1.0000
