data_image0
_chemical_formula_structural       Zn2CoBr6
_chemical_formula_sum              "Zn2 Co1 Br6"
_cell_length_a       7.206597396472863
_cell_length_b       7.206597198112961
_cell_length_c       7.206597300253325
_cell_angle_alpha    60.00000006534408
_cell_angle_beta     60.0000000154003
_cell_angle_gamma    60.00000046294007

_space_group_name_H-M_alt    "P 1"
_space_group_IT_number       1

loop_
  _space_group_symop_operation_xyz
  'x, y, z'

loop_
  _atom_site_type_symbol
  _atom_site_label
  _atom_site_symmetry_multiplicity
  _atom_site_fract_x
  _atom_site_fract_y
  _atom_site_fract_z
  _atom_site_occupancy
  Zn  Zn1       1.0  0.25000001381270687  0.24999999545831497  0.25000004134219167  1.0000
  Zn  Zn2       1.0  0.7500000037275462  0.7500000033697168  0.7499999859094117  1.0000
  Co  Co1       1.0  0.9999999989642101  0.9999999983005223  0.9999999625143459  1.0000
  Br  Br1       1.0  0.2405124175927978  0.240512411970467  0.7594875978679378  1.0000
  Br  Br2       1.0  0.7594875398382761  0.7594875460701077  0.24051246318057473  1.0000
  Br  Br3       1.0  0.7594875988873092  0.24051244576635242  0.24051240358289616  1.0000
  Br  Br4       1.0  0.24051247088125768  0.759487530968474  0.7594875503212208  1.0000
  Br  Br5       1.0  0.24051241277237104  0.7594875677772299  0.24051243523912869  1.0000
  Br  Br6       1.0  0.7594875522313087  0.24051249733041796  0.7594875393495788  1.0000
