data_image0
_chemical_formula_structural       Zn2CuBr6
_chemical_formula_sum              "Zn2 Cu1 Br6"
_cell_length_a       7.148870908429933
_cell_length_b       7.148870943003004
_cell_length_c       7.148870989490046
_cell_angle_alpha    60.000000592582055
_cell_angle_beta     60.00000033780972
_cell_angle_gamma    60.00000077216922

_space_group_name_H-M_alt    "P 1"
_space_group_IT_number       1

loop_
  _space_group_symop_operation_xyz
  'x, y, z'

loop_
  _atom_site_type_symbol
  _atom_site_label
  _atom_site_symmetry_multiplicity
  _atom_site_fract_x
  _atom_site_fract_y
  _atom_site_fract_z
  _atom_site_occupancy
  Zn  Zn1       1.0  0.2500000293102369  0.25000005686583904  0.2499999605199976  1.0000
  Zn  Zn2       1.0  0.750000013829394  0.7499999907114742  0.7500000113513157  1.0000
  Cu  Cu1       1.0  0.9999999744335945  1.3705602981922179e-08  0.9999999779539557  1.0000
  Br  Br1       1.0  0.2458596238927229  0.24585962817347584  0.7541403852565445  1.0000
  Br  Br2       1.0  0.7541403773827661  0.7541403560154222  0.2458596280504686  1.0000
  Br  Br3       1.0  0.7541403734870926  0.24585962334823885  0.24585962439748657  1.0000
  Br  Br4       1.0  0.24585962674424242  0.7541403591274587  0.7541403902882037  1.0000
  Br  Br5       1.0  0.24585962247463738  0.7541403609823891  0.24585960487314892  1.0000
  Br  Br6       1.0  0.754140356856806  0.24585961635370712  0.7541404158381765  1.0000
