data_image0
_chemical_formula_structural       Zn2CoF6
_chemical_formula_sum              "Zn2 Co1 F6"
_cell_length_a       5.124562835789761
_cell_length_b       5.12456273051659
_cell_length_c       5.12456263284091
_cell_angle_alpha    60.00000016571945
_cell_angle_beta     59.999999932321735
_cell_angle_gamma    60.00000010689558

_space_group_name_H-M_alt    "P 1"
_space_group_IT_number       1

loop_
  _space_group_symop_operation_xyz
  'x, y, z'

loop_
  _atom_site_type_symbol
  _atom_site_label
  _atom_site_symmetry_multiplicity
  _atom_site_fract_x
  _atom_site_fract_y
  _atom_site_fract_z
  _atom_site_occupancy
  Zn  Zn1       1.0  0.2500000203723795  0.2500000254318151  0.2499999255305287  1.0000
  Zn  Zn2       1.0  0.7499999929060799  0.7499999902572451  0.750000005924328  1.0000
  Co  Co1       1.0  0.9999999852971521  0.9999999832703499  2.1570407360065372e-08  1.0000
  F   F1        1.0  0.25100358669321876  0.25100363949861715  0.7489964179794544  1.0000
  F   F2        1.0  0.7489964211688244  0.7489963451210929  0.25100360977372715  1.0000
  F   F3        1.0  0.748996355524122  0.25100359383279464  0.25100368187808386  1.0000
  F   F4        1.0  0.25100365857443757  0.7489963788371654  0.7489963487317145  1.0000
  F   F5        1.0  0.2510036438548671  0.7489964099378089  0.2510036233392329  1.0000
  F   F6        1.0  0.7489963448875762  0.2510036320407011  0.748996393099893  1.0000
