data_image0
_chemical_formula_structural       Zn2CdBr6
_chemical_formula_sum              "Zn2 Cd1 Br6"
_cell_length_a       7.362164049138212
_cell_length_b       7.362163936982366
_cell_length_c       7.36216398449838
_cell_angle_alpha    59.999999887106625
_cell_angle_beta     59.99999995271133
_cell_angle_gamma    60.00000054192948

_space_group_name_H-M_alt    "P 1"
_space_group_IT_number       1

loop_
  _space_group_symop_operation_xyz
  'x, y, z'

loop_
  _atom_site_type_symbol
  _atom_site_label
  _atom_site_symmetry_multiplicity
  _atom_site_fract_x
  _atom_site_fract_y
  _atom_site_fract_z
  _atom_site_occupancy
  Zn  Zn1       1.0  0.24999997820635075  0.25000001181337933  0.24999999744513227  1.0000
  Zn  Zn2       1.0  0.7499999943306832  0.7500000021688102  0.74999997368206  1.0000
  Cd  Cd1       1.0  0.9999999667151489  0.9999999634015385  8.655691522335516e-08  1.0000
  Br  Br1       1.0  0.2624492909205437  0.26244926920269035  0.737550703915786  1.0000
  Br  Br2       1.0  0.737550727940773  0.7375507281438353  0.26244928224961506  1.0000
  Br  Br3       1.0  0.7375507168195745  0.2624492616059377  0.2624493272421507  1.0000
  Br  Br4       1.0  0.2624493190253225  0.7375507224320569  0.7375506761018736  1.0000
  Br  Br5       1.0  0.26244928770740383  0.7375507412466812  0.262449284535591  1.0000
  Br  Br6       1.0  0.7375507206179924  0.2624492877076064  0.7375506788692227  1.0000
