data_image0
_chemical_formula_structural       Zn2CdF6
_chemical_formula_sum              "Zn2 Cd1 F6"
_cell_length_a       5.636679472305532
_cell_length_b       5.636679790379921
_cell_length_c       5.636679437712635
_cell_angle_alpha    60.00000023216461
_cell_angle_beta     60.000000363518225
_cell_angle_gamma    60.00000312485717

_space_group_name_H-M_alt    "P 1"
_space_group_IT_number       1

loop_
  _space_group_symop_operation_xyz
  'x, y, z'

loop_
  _atom_site_type_symbol
  _atom_site_label
  _atom_site_symmetry_multiplicity
  _atom_site_fract_x
  _atom_site_fract_y
  _atom_site_fract_z
  _atom_site_occupancy
  Zn  Zn1       1.0  0.24999985559673982  0.2500001919496035  0.24999996793893514  1.0000
  Zn  Zn2       1.0  0.7500000996330385  0.7499997762538093  0.7500000425151905  1.0000
  Cd  Cd1       1.0  0.999999963601887  1.0864062188875073e-08  0.9999999968001779  1.0000
  F   F1        1.0  0.2668716061121574  0.26687183411874044  0.7331282964230446  1.0000
  F   F2        1.0  0.7331284147527652  0.7331282014418635  0.2668715978602765  1.0000
  F   F3        1.0  0.7331282819008774  0.2668716042382211  0.26687181571844304  1.0000
  F   F4        1.0  0.26687181821840145  0.7331282857439413  0.7331282678472077  1.0000
  F   F5        1.0  0.2668715842834817  0.7331281740616049  0.26687183177078405  1.0000
  F   F6        1.0  0.7331283829250947  0.26687191799212207  0.733128137380196  1.0000
