data_image0
_chemical_formula_structural       Zn2CuI6
_chemical_formula_sum              "Zn2 Cu1 I6"
_cell_length_a       7.581679012201504
_cell_length_b       7.581679002016121
_cell_length_c       7.581679000890155
_cell_angle_alpha    59.99999988005538
_cell_angle_beta     59.99999977241512
_cell_angle_gamma    59.99999992170938

_space_group_name_H-M_alt    "P 1"
_space_group_IT_number       1

loop_
  _space_group_symop_operation_xyz
  'x, y, z'

loop_
  _atom_site_type_symbol
  _atom_site_label
  _atom_site_symmetry_multiplicity
  _atom_site_fract_x
  _atom_site_fract_y
  _atom_site_fract_z
  _atom_site_occupancy
  Zn  Zn1       1.0  0.24999999928152303  0.25000000089791574  0.25000000700624936  1.0000
  Zn  Zn2       1.0  0.7500000033981594  0.7500000043091479  0.7499999870979641  1.0000
  Cu  Cu1       1.0  4.846201732635141e-09  0.9999999854613947  1.539795424316579e-08  1.0000
  I   I1        1.0  0.25289889509351454  0.2528989049190131  0.7471010977894145  1.0000
  I   I2        1.0  0.7471010984480823  0.7471011002880504  0.2528989087976563  1.0000
  I   I3        1.0  0.7471011295447825  0.25289888262893145  0.25289890003478677  1.0000
  I   I4        1.0  0.25289889625727313  0.7471011080395268  0.7471010871396049  1.0000
  I   I5        1.0  0.2528988638845334  0.7471011179142593  0.25289891579025725  1.0000
  I   I6        1.0  0.7471011085961716  0.25289890021600897  0.7471010764000903  1.0000
