data_image0
_chemical_formula_structural       Zn2CoCl6
_chemical_formula_sum              "Zn2 Co1 Cl6"
_cell_length_a       6.945944363271633
_cell_length_b       6.9459445947211
_cell_length_c       6.945944170304732
_cell_angle_alpha    59.999999099197154
_cell_angle_beta     59.9999993772191
_cell_angle_gamma    59.999999532285244

_space_group_name_H-M_alt    "P 1"
_space_group_IT_number       1

loop_
  _space_group_symop_operation_xyz
  'x, y, z'

loop_
  _atom_site_type_symbol
  _atom_site_label
  _atom_site_symmetry_multiplicity
  _atom_site_fract_x
  _atom_site_fract_y
  _atom_site_fract_z
  _atom_site_occupancy
  Zn  Zn1       1.0  0.2499999020586583  0.2499992738655061  0.25000041006072915  1.0000
  Zn  Zn2       1.0  0.7499997467727687  0.7500001684845964  0.7499989321981715  1.0000
  Co  Co1       1.0  2.817445711300235e-08  1.4987639504486671e-07  0.9999999685621337  1.0000
  Cl  Cl1       1.0  0.22694118740696576  0.22694113463508014  0.7730589306176827  1.0000
  Cl  Cl2       1.0  0.7730588736585583  0.7730588913512992  0.2269414628114679  1.0000
  Cl  Cl3       1.0  0.7730589283430864  0.22694110923748645  0.22694140757609865  1.0000
  Cl  Cl4       1.0  0.22694126583039248  0.7730590560457811  0.7730587618295917  1.0000
  Cl  Cl5       1.0  0.22694122308603992  0.7730589104984816  0.2269412559784174  1.0000
  Cl  Cl6       1.0  0.7730588598730685  0.22694130415583702  0.7730588709247895  1.0000
