data_image0
_chemical_formula_structural       Zn2CoI6
_chemical_formula_sum              "Zn2 Co1 I6"
_cell_length_a       7.599809848611639
_cell_length_b       7.599809921444932
_cell_length_c       7.5998100588146995
_cell_angle_alpha    59.99999847348266
_cell_angle_beta     59.99999892269077
_cell_angle_gamma    60.00000006687752

_space_group_name_H-M_alt    "P 1"
_space_group_IT_number       1

loop_
  _space_group_symop_operation_xyz
  'x, y, z'

loop_
  _atom_site_type_symbol
  _atom_site_label
  _atom_site_symmetry_multiplicity
  _atom_site_fract_x
  _atom_site_fract_y
  _atom_site_fract_z
  _atom_site_occupancy
  Zn  Zn1       1.0  0.25000000268581607  0.24999998355645228  0.2500000062114677  1.0000
  Zn  Zn2       1.0  0.7500000042813599  0.7499999893464784  0.7500000077629979  1.0000
  Co  Co1       1.0  0.999999971300283  1.7727013636561987e-08  2.1276219947934134e-08  1.0000
  I   I1        1.0  0.24713957930886524  0.24713957497821415  0.7528604209748057  1.0000
  I   I2        1.0  0.7528604171911638  0.7528604156517308  0.2471395775273251  1.0000
  I   I3        1.0  0.7528604173028048  0.2471395807530973  0.2471395894427865  1.0000
  I   I4        1.0  0.2471395930401706  0.7528604276038615  0.752860405116765  1.0000
  I   I5        1.0  0.24713959139856925  0.7528604213363401  0.2471395673323645  1.0000
  I   I6        1.0  0.7528604183150581  0.24713959346680595  0.752860400633965  1.0000
