data_image0
_chemical_formula_structural       Zn2CrBr6
_chemical_formula_sum              "Zn2 Cr1 Br6"
_cell_length_a       7.29669043914421
_cell_length_b       7.296690491525822
_cell_length_c       7.296690510709251
_cell_angle_alpha    60.00000021250715
_cell_angle_beta     59.99999867637215
_cell_angle_gamma    59.99999925199444

_space_group_name_H-M_alt    "P 1"
_space_group_IT_number       1

loop_
  _space_group_symop_operation_xyz
  'x, y, z'

loop_
  _atom_site_type_symbol
  _atom_site_label
  _atom_site_symmetry_multiplicity
  _atom_site_fract_x
  _atom_site_fract_y
  _atom_site_fract_z
  _atom_site_occupancy
  Zn  Zn1       1.0  0.2499999767783836  0.25000006476946596  0.24999990590503304  1.0000
  Zn  Zn2       1.0  0.7499999850233641  0.7499999542838057  0.7499999597660796  1.0000
  Cr  Cr1       1.0  0.999999984301119  1.0406660646809191e-07  0.9999999229245137  1.0000
  Br  Br1       1.0  0.23753685795913415  0.23753680827666188  0.7624631888270254  1.0000
  Br  Br2       1.0  0.7624630846935737  0.7624631637787891  0.23753689767387084  1.0000
  Br  Br3       1.0  0.7624631439572416  0.23753686737864474  0.23753687547190444  1.0000
  Br  Br4       1.0  0.23753686587897302  0.7624631499961341  0.7624631342203091  1.0000
  Br  Br5       1.0  0.23753691583475828  0.7624630824493369  0.2375369241528336  1.0000
  Br  Br6       1.0  0.7624631856767603  0.2375368023244432  0.7624631882312861  1.0000
