data_image0
_chemical_formula_structural       Zn2CI6
_chemical_formula_sum              "Zn2 C1 I6"
_cell_length_a       7.56295320017667
_cell_length_b       7.562953253842705
_cell_length_c       7.56295327378256
_cell_angle_alpha    59.999999948127645
_cell_angle_beta     60.0000006010243
_cell_angle_gamma    60.00000081768858

_space_group_name_H-M_alt    "P 1"
_space_group_IT_number       1

loop_
  _space_group_symop_operation_xyz
  'x, y, z'

loop_
  _atom_site_type_symbol
  _atom_site_label
  _atom_site_symmetry_multiplicity
  _atom_site_fract_x
  _atom_site_fract_y
  _atom_site_fract_z
  _atom_site_occupancy
  Zn  Zn1       1.0  0.24999999082196397  0.2499999838239368  0.25000001225423835  1.0000
  Zn  Zn2       1.0  0.7500000072882174  0.749999993576218  0.7500000022660532  1.0000
  C   C1        1.0  0.9999999440805268  0.9999999433209893  9.332181588776213e-08  1.0000
  I   I1        1.0  0.24942694926597217  0.24942697043903814  0.7505730335204052  1.0000
  I   I2        1.0  0.750573114911379  0.7505730652595277  0.24942690823921795  1.0000
  I   I3        1.0  0.7505730789542039  0.24942694238143895  0.24942689505534527  1.0000
  I   I4        1.0  0.24942690789690034  0.750573091697726  0.7505730927882754  1.0000
  I   I5        1.0  0.24942692312422413  0.7505730640955691  0.249426925940514  1.0000
  I   I6        1.0  0.7505730758644369  0.24942694731199194  0.7505730473366082  1.0000
