data_image0
_chemical_formula_structural       Zn2CrCl6
_chemical_formula_sum              "Zn2 Cr1 Cl6"
_cell_length_a       7.032386789830064
_cell_length_b       7.032387142016502
_cell_length_c       7.0323869252414175
_cell_angle_alpha    60.000002134636915
_cell_angle_beta     59.999998617045826
_cell_angle_gamma    60.000001539913264

_space_group_name_H-M_alt    "P 1"
_space_group_IT_number       1

loop_
  _space_group_symop_operation_xyz
  'x, y, z'

loop_
  _atom_site_type_symbol
  _atom_site_label
  _atom_site_symmetry_multiplicity
  _atom_site_fract_x
  _atom_site_fract_y
  _atom_site_fract_z
  _atom_site_occupancy
  Zn  Zn1       1.0  0.25000005732486497  0.24999994644535065  0.24999982780024727  1.0000
  Zn  Zn2       1.0  0.7499998948249788  0.7500000796737754  0.7499999113404718  1.0000
  Cr  Cr1       1.0  0.9999999918897267  0.9999999947752659  0.9999999313019122  1.0000
  Cl  Cl1       1.0  0.23237378883386178  0.23237376543677066  0.7676262384092184  1.0000
  Cl  Cl2       1.0  0.7676262557304314  0.767626293772335  0.23237371384579036  1.0000
  Cl  Cl3       1.0  0.7676261542518881  0.23237382671977488  0.23237386750669425  1.0000
  Cl  Cl4       1.0  0.23237377024900005  0.7676262429387997  0.7676263016624049  1.0000
  Cl  Cl5       1.0  0.23237381284104927  0.7676261075295846  0.23237391955493428  1.0000
  Cl  Cl6       1.0  0.7676262966596272  0.23237373224073898  0.7676262877003082  1.0000
