data_image0
_chemical_formula_structural       Zn2CdCl6
_chemical_formula_sum              "Zn2 Cd1 Cl6"
_cell_length_a       7.0032396825222865
_cell_length_b       7.003239881669252
_cell_length_c       7.003239604574709
_cell_angle_alpha    60.00000092211362
_cell_angle_beta     60.000000977239075
_cell_angle_gamma    60.00000086078681

_space_group_name_H-M_alt    "P 1"
_space_group_IT_number       1

loop_
  _space_group_symop_operation_xyz
  'x, y, z'

loop_
  _atom_site_type_symbol
  _atom_site_label
  _atom_site_symmetry_multiplicity
  _atom_site_fract_x
  _atom_site_fract_y
  _atom_site_fract_z
  _atom_site_occupancy
  Zn  Zn1       1.0  0.24999992930526133  0.24999997820927713  0.2500000948851121  1.0000
  Zn  Zn2       1.0  0.7499999650556346  0.749999868172441  0.7500000565359257  1.0000
  Cd  Cd1       1.0  1.870268229648707e-08  2.7981217110878582e-08  9.325303411086046e-10  1.0000
  Cl  Cl1       1.0  0.2577454516565105  0.25774535767878665  0.7422544494652925  1.0000
  Cl  Cl2       1.0  0.7422545693768495  0.7422546478461064  0.25774529774028776  1.0000
  Cl  Cl3       1.0  0.7422546201632764  0.25774560110285816  0.25774533551511564  1.0000
  Cl  Cl4       1.0  0.25774554273336553  0.7422544586356411  0.7422546263644405  1.0000
  Cl  Cl5       1.0  0.25774539037010574  0.742254486358459  0.2577455755331541  1.0000
  Cl  Cl6       1.0  0.7422545237563972  0.25774556288708395  0.7422545431082498  1.0000
