data_image0
_chemical_formula_structural       Zn2CrI6
_chemical_formula_sum              "Zn2 Cr1 I6"
_cell_length_a       7.804444545437189
_cell_length_b       7.804444658299139
_cell_length_c       7.804444702249787
_cell_angle_alpha    59.99999968486966
_cell_angle_beta     59.99999930652856
_cell_angle_gamma    59.999999157550484

_space_group_name_H-M_alt    "P 1"
_space_group_IT_number       1

loop_
  _space_group_symop_operation_xyz
  'x, y, z'

loop_
  _atom_site_type_symbol
  _atom_site_label
  _atom_site_symmetry_multiplicity
  _atom_site_fract_x
  _atom_site_fract_y
  _atom_site_fract_z
  _atom_site_occupancy
  Zn  Zn1       1.0  0.25000000278258894  0.24999998783702296  0.250000002966875  1.0000
  Zn  Zn2       1.0  0.7500000091093147  0.7500000011740652  0.7499999960949586  1.0000
  Cr  Cr1       1.0  0.9999999893585577  4.080157952020191e-08  0.9999999131659474  1.0000
  I   I1        1.0  0.24123355927054496  0.241233549791867  0.7587664487370693  1.0000
  I   I2        1.0  0.7587664490648263  0.7587664188184318  0.24123354949021397  1.0000
  I   I3        1.0  0.7587664091719863  0.2412335814920199  0.24123353986235063  1.0000
  I   I4        1.0  0.24123350946255925  0.7587664875529363  0.7587665068135044  1.0000
  I   I5        1.0  0.2412335963752036  0.7587664003721711  0.24123355436790742  1.0000
  I   I6        1.0  0.7587664719496015  0.24123352586725616  0.7587664927095459  1.0000
