data_image0
_chemical_formula_structural       Zn2CuF6
_chemical_formula_sum              "Zn2 Cu1 F6"
_cell_length_a       5.185582977678881
_cell_length_b       5.185582879341879
_cell_length_c       5.185582923920318
_cell_angle_alpha    59.99999882529597
_cell_angle_beta     59.99999950252555
_cell_angle_gamma    60.00000019313435

_space_group_name_H-M_alt    "P 1"
_space_group_IT_number       1

loop_
  _space_group_symop_operation_xyz
  'x, y, z'

loop_
  _atom_site_type_symbol
  _atom_site_label
  _atom_site_symmetry_multiplicity
  _atom_site_fract_x
  _atom_site_fract_y
  _atom_site_fract_z
  _atom_site_occupancy
  Zn  Zn1       1.0  0.25000006932422436  0.2500000443878588  0.2499999394959402  1.0000
  Zn  Zn2       1.0  0.7499999591631402  0.7500000245195383  0.7499999991430318  1.0000
  Cu  Cu1       1.0  0.9999999916101189  1.1809134132491714e-08  0.9999999944335265  1.0000
  F   F1        1.0  0.25587937336971267  0.2558792491817161  0.7441207386172229  1.0000
  F   F2        1.0  0.744120689128752  0.7441206709305898  0.25587930176748624  1.0000
  F   F3        1.0  0.7441206415566202  0.2558793660291896  0.25587930506605633  1.0000
  F   F4        1.0  0.25587932237812205  0.7441206627271503  0.7441206666405212  1.0000
  F   F5        1.0  0.25587931031689853  0.7441206779135998  0.2558793357721686  1.0000
  F   F6        1.0  0.7441206549685946  0.2558792799879345  0.7441207150401773  1.0000
