data_image0
_chemical_formula_structural       Zn2FeI6
_chemical_formula_sum              "Zn2 Fe1 I6"
_cell_length_a       7.736682291495639
_cell_length_b       7.736682283763634
_cell_length_c       7.7366821716720695
_cell_angle_alpha    60.00000043215609
_cell_angle_beta     59.999999653194045
_cell_angle_gamma    60.000000381405066

_space_group_name_H-M_alt    "P 1"
_space_group_IT_number       1

loop_
  _space_group_symop_operation_xyz
  'x, y, z'

loop_
  _atom_site_type_symbol
  _atom_site_label
  _atom_site_symmetry_multiplicity
  _atom_site_fract_x
  _atom_site_fract_y
  _atom_site_fract_z
  _atom_site_occupancy
  Zn  Zn1       1.0  0.2499999993576877  0.2500000023893892  0.25000000053751503  1.0000
  Zn  Zn2       1.0  0.7500000075557477  0.7500000055851311  0.7499999834447401  1.0000
  Fe  Fe1       1.0  2.245185992037957e-09  6.490448690505597e-08  0.9999999534997263  1.0000
  I   I1        1.0  0.22274391217402958  0.22274394219181862  0.7772560736604729  1.0000
  I   I2        1.0  0.7772559996720237  0.7772560420371573  0.22274397360587733  1.0000
  I   I3        1.0  0.7772561078771933  0.2227439366141676  0.2227438860947504  1.0000
  I   I4        1.0  0.22274392651947258  0.7772560650282077  0.7772560873119617  1.0000
  I   I5        1.0  0.2227439450133207  0.7772560239482629  0.22274394794329852  1.0000
  I   I6        1.0  0.7772560726502933  0.22274391595569829  0.7772561073530899  1.0000
