data_image0
_chemical_formula_structural       Zn2FeBr6
_chemical_formula_sum              "Zn2 Fe1 Br6"
_cell_length_a       7.483289007245125
_cell_length_b       7.48328903102764
_cell_length_c       7.483288800758739
_cell_angle_alpha    60.000000655403426
_cell_angle_beta     60.00000068530333
_cell_angle_gamma    60.0000016828353

_space_group_name_H-M_alt    "P 1"
_space_group_IT_number       1

loop_
  _space_group_symop_operation_xyz
  'x, y, z'

loop_
  _atom_site_type_symbol
  _atom_site_label
  _atom_site_symmetry_multiplicity
  _atom_site_fract_x
  _atom_site_fract_y
  _atom_site_fract_z
  _atom_site_occupancy
  Zn  Zn1       1.0  0.24999994681389315  0.24999998628018502  0.2500000269423664  1.0000
  Zn  Zn2       1.0  0.7499999972833367  0.7500001225045358  0.7499999900624434  1.0000
  Fe  Fe1       1.0  0.9999999902122797  0.9999999738137633  0.9999999992786267  1.0000
  Br  Br1       1.0  0.21282804238713462  0.2128279666325021  0.7871720305202636  1.0000
  Br  Br2       1.0  0.7871719904602907  0.7871720194042359  0.2128279968018858  1.0000
  Br  Br3       1.0  0.7871719775804231  0.2128280309487506  0.21282799790600884  1.0000
  Br  Br4       1.0  0.21282801023807468  0.7871719698177451  0.7871719670596964  1.0000
  Br  Br5       1.0  0.21282803742876458  0.7871719847773712  0.21282801587132089  1.0000
  Br  Br6       1.0  0.7871719854437388  0.21282798489296892  0.7871719671601222  1.0000
