data_image0
_chemical_formula_structural       Zn2GeBr6
_chemical_formula_sum              "Zn2 Ge1 Br6"
_cell_length_a       7.399869446804853
_cell_length_b       7.399869671656217
_cell_length_c       7.399869669670851
_cell_angle_alpha    60.00000148797667
_cell_angle_beta     60.000000476594565
_cell_angle_gamma    60.00000327799591

_space_group_name_H-M_alt    "P 1"
_space_group_IT_number       1

loop_
  _space_group_symop_operation_xyz
  'x, y, z'

loop_
  _atom_site_type_symbol
  _atom_site_label
  _atom_site_symmetry_multiplicity
  _atom_site_fract_x
  _atom_site_fract_y
  _atom_site_fract_z
  _atom_site_occupancy
  Zn  Zn1       1.0  0.2499999671164403  0.2500000238762604  0.25000003915784524  1.0000
  Zn  Zn2       1.0  0.7499999686832158  0.7500001411425503  0.7499998990470634  1.0000
  Ge  Ge1       1.0  2.5897259121575638e-08  0.9999999784838343  2.7539706695096643e-08  1.0000
  Br  Br1       1.0  0.2339579394326138  0.2339578880932099  0.766042096906567  1.0000
  Br  Br2       1.0  0.7660421404029979  0.7660420882453738  0.23395788929660447  1.0000
  Br  Br3       1.0  0.7660420748497542  0.2339578919219114  0.2339579557264724  1.0000
  Br  Br4       1.0  0.2339579298497929  0.7660420149029018  0.7660421095584912  1.0000
  Br  Br5       1.0  0.23395790381074283  0.766042055285098  0.23395791093991725  1.0000
  Br  Br6       1.0  0.766042044948442  0.23395792105348232  0.7660420732327107  1.0000
