data_image0
_chemical_formula_structural       Zn2MgCl6
_chemical_formula_sum              "Zn2 Mg1 Cl6"
_cell_length_a       6.894142891926353
_cell_length_b       6.8941428418674775
_cell_length_c       6.894142419672137
_cell_angle_alpha    60.000001252450346
_cell_angle_beta     60.00000040235034
_cell_angle_gamma    60.00000005619271

_space_group_name_H-M_alt    "P 1"
_space_group_IT_number       1

loop_
  _space_group_symop_operation_xyz
  'x, y, z'

loop_
  _atom_site_type_symbol
  _atom_site_label
  _atom_site_symmetry_multiplicity
  _atom_site_fract_x
  _atom_site_fract_y
  _atom_site_fract_z
  _atom_site_occupancy
  Zn  Zn1       1.0  0.24999996514409487  0.25000035120610636  0.2499997730441383  1.0000
  Zn  Zn2       1.0  0.7499998925765564  0.749999856256945  0.750000136816983  1.0000
  Mg  Mg1       1.0  2.911478387280831e-08  8.349552585262863e-08  0.9999999654524452  1.0000
  Cl  Cl1       1.0  0.24897503062346574  0.2489747232846919  0.7510251369882524  1.0000
  Cl  Cl2       1.0  0.751025022425089  0.7510250489357224  0.2489749726081058  1.0000
  Cl  Cl3       1.0  0.7510251271078302  0.24897495349678223  0.2489748579112104  1.0000
  Cl  Cl4       1.0  0.24897490504355693  0.751025007032691  0.7510251578256544  1.0000
  Cl  Cl5       1.0  0.2489749482558198  0.7510250363225358  0.2489749231157456  1.0000
  Cl  Cl6       1.0  0.7510250705805291  0.24897494907794515  0.7510250853926275  1.0000
