data_image0
_chemical_formula_structural       Zn2MnBr6
_chemical_formula_sum              "Zn2 Mn1 Br6"
_cell_length_a       7.528297854106964
_cell_length_b       7.528297830653536
_cell_length_c       7.528298100988248
_cell_angle_alpha    60.000002578699394
_cell_angle_beta     60.00000083915683
_cell_angle_gamma    60.00000143324542

_space_group_name_H-M_alt    "P 1"
_space_group_IT_number       1

loop_
  _space_group_symop_operation_xyz
  'x, y, z'

loop_
  _atom_site_type_symbol
  _atom_site_label
  _atom_site_symmetry_multiplicity
  _atom_site_fract_x
  _atom_site_fract_y
  _atom_site_fract_z
  _atom_site_occupancy
  Zn  Zn1       1.0  0.2500000022391924  0.24999999302059095  0.2499999665647628  1.0000
  Zn  Zn2       1.0  0.7500001268175042  0.7500001157175906  0.74999989617864  1.0000
  Mn  Mn1       1.0  0.9999999650784906  8.134275476142581e-09  3.8631724563447034e-08  1.0000
  Br  Br1       1.0  0.21912309508821937  0.219123083582161  0.7808769040173252  1.0000
  Br  Br2       1.0  0.7808769314077528  0.7808768266797196  0.21912309463304672  1.0000
  Br  Br3       1.0  0.7808768891587863  0.21912306585067584  0.21912310314549924  1.0000
  Br  Br4       1.0  0.2191230654791835  0.7808769127391127  0.7808769304779578  1.0000
  Br  Br5       1.0  0.21912308928029636  0.780876896090716  0.21912306523599284  1.0000
  Br  Br6       1.0  0.780876842071346  0.21912309714076658  0.7808769634115306  1.0000
