data_image0
_chemical_formula_structural       Zn2MnI6
_chemical_formula_sum              "Zn2 Mn1 I6"
_cell_length_a       7.738773576892295
_cell_length_b       7.738773563732745
_cell_length_c       7.738773345633527
_cell_angle_alpha    60.0000005097076
_cell_angle_beta     60.00000005920239
_cell_angle_gamma    59.99999939179189

_space_group_name_H-M_alt    "P 1"
_space_group_IT_number       1

loop_
  _space_group_symop_operation_xyz
  'x, y, z'

loop_
  _atom_site_type_symbol
  _atom_site_label
  _atom_site_symmetry_multiplicity
  _atom_site_fract_x
  _atom_site_fract_y
  _atom_site_fract_z
  _atom_site_occupancy
  Zn  Zn1       1.0  0.24999996922302392  0.2500000203144111  0.25000003849451946  1.0000
  Zn  Zn2       1.0  0.7499999930367569  0.7499999659867238  0.7499999988116915  1.0000
  Mn  Mn1       1.0  5.8884836260428804e-08  1.5826084488628306e-08  0.9999997843217044  1.0000
  I   I1        1.0  0.23825655043521546  0.23825650776955076  0.7617434677354102  1.0000
  I   I2        1.0  0.7617434288401567  0.7617434991054941  0.2382565365619109  1.0000
  I   I3        1.0  0.761743436225931  0.23825654740388583  0.23825654931157994  1.0000
  I   I4        1.0  0.23825645994186445  0.7617435924102722  0.7617434882187235  1.0000
  I   I5        1.0  0.23825655161781054  0.7617434126622596  0.23825659588055853  1.0000
  I   I6        1.0  0.7617435518508407  0.23825644544758653  0.7617435408768065  1.0000
