data_image0
_chemical_formula_structural       Zn2MgI6
_chemical_formula_sum              "Zn2 Mg1 I6"
_cell_length_a       7.88419383990647
_cell_length_b       7.8841938294578675
_cell_length_c       7.884193855096395
_cell_angle_alpha    59.99999912564974
_cell_angle_beta     59.999999281421026
_cell_angle_gamma    59.99999909537413

_space_group_name_H-M_alt    "P 1"
_space_group_IT_number       1

loop_
  _space_group_symop_operation_xyz
  'x, y, z'

loop_
  _atom_site_type_symbol
  _atom_site_label
  _atom_site_symmetry_multiplicity
  _atom_site_fract_x
  _atom_site_fract_y
  _atom_site_fract_z
  _atom_site_occupancy
  Zn  Zn1       1.0  0.25000001353053053  0.24999999914637883  0.24999999762834227  1.0000
  Zn  Zn2       1.0  0.74999999786759  0.7499999850117925  0.7500000039720134  1.0000
  Mg  Mg1       1.0  2.335962658594824e-08  0.9999999782521478  0.9999999497280536  1.0000
  I   I1        1.0  0.25878613502096537  0.25878609731045804  0.7412138588453737  1.0000
  I   I2        1.0  0.7412139048843559  0.7412139023818937  0.2587861067823259  1.0000
  I   I3        1.0  0.7412138457225204  0.25878617003934756  0.25878613299865316  1.0000
  I   I4        1.0  0.2587860711126409  0.7412139088773234  0.7412139522157248  1.0000
  I   I5        1.0  0.25878609649331336  0.7412138730415562  0.25878611384815847  1.0000
  I   I6        1.0  0.7412139105263206  0.25878608470850856  0.7412138942669705  1.0000
