data_image0
_chemical_formula_structural       Zn2MnCl6
_chemical_formula_sum              "Zn2 Mn1 Cl6"
_cell_length_a       7.130986552861838
_cell_length_b       7.1309869649763815
_cell_length_c       7.130987083177975
_cell_angle_alpha    60.00000236588857
_cell_angle_beta     60.000000891383
_cell_angle_gamma    60.00000169657189

_space_group_name_H-M_alt    "P 1"
_space_group_IT_number       1

loop_
  _space_group_symop_operation_xyz
  'x, y, z'

loop_
  _atom_site_type_symbol
  _atom_site_label
  _atom_site_symmetry_multiplicity
  _atom_site_fract_x
  _atom_site_fract_y
  _atom_site_fract_z
  _atom_site_occupancy
  Zn  Zn1       1.0  0.2500003124844537  0.2500003273550838  0.24999955006022964  1.0000
  Zn  Zn2       1.0  0.7500002336180995  0.7499995376503468  0.7500008251350897  1.0000
  Mn  Mn1       1.0  0.9999999304358304  5.324240292278983e-08  0.999999866525512  1.0000
  Cl  Cl1       1.0  0.22252833023958296  0.22252851034120144  0.7774715477313668  1.0000
  Cl  Cl2       1.0  0.7774715526462069  0.7774714886289793  0.22252831239424034  1.0000
  Cl  Cl3       1.0  0.777471459875778  0.2225286091741153  0.2225283188819172  1.0000
  Cl  Cl4       1.0  0.22252833119975904  0.7774715340658107  0.7774715584861871  1.0000
  Cl  Cl5       1.0  0.22252846243568136  0.7774715261955514  0.22252844420195006  1.0000
  Cl  Cl6       1.0  0.7774713955408675  0.22252839205227593  0.7774716005585102  1.0000
