data_image0
_chemical_formula_structural       Zn2MgF6
_chemical_formula_sum              "Zn2 Mg1 F6"
_cell_length_a       5.156967953729194
_cell_length_b       5.156968156726565
_cell_length_c       5.156967871864926
_cell_angle_alpha    60.00000054741956
_cell_angle_beta     59.99999941327447
_cell_angle_gamma    60.00000066641319

_space_group_name_H-M_alt    "P 1"
_space_group_IT_number       1

loop_
  _space_group_symop_operation_xyz
  'x, y, z'

loop_
  _atom_site_type_symbol
  _atom_site_label
  _atom_site_symmetry_multiplicity
  _atom_site_fract_x
  _atom_site_fract_y
  _atom_site_fract_z
  _atom_site_occupancy
  Zn  Zn1       1.0  0.2500000290737332  0.25000005641705964  0.2500000020026411  1.0000
  Zn  Zn2       1.0  0.7499999759489423  0.7499998985089332  0.7500002765192609  1.0000
  Mg  Mg1       1.0  0.9999999823354861  2.61242517711543e-08  0.9999999957701309  1.0000
  F   F1        1.0  0.25463192486502945  0.2546317148430946  0.7453680956776951  1.0000
  F   F2        1.0  0.7453679919476016  0.7453684039532091  0.25463170483293207  1.0000
  F   F3        1.0  0.7453683055001085  0.2546319610968362  0.2546316564847178  1.0000
  F   F4        1.0  0.2546317852411687  0.7453680389528662  0.745368354947135  1.0000
  F   F5        1.0  0.2546317499017813  0.745368101009373  0.2546318734001834  1.0000
  F   F6        1.0  0.7453682390862775  0.2546317945433246  0.7453680627573778  1.0000
