data_image0
_chemical_formula_structural       Zn2MgBr6
_chemical_formula_sum              "Zn2 Mg1 Br6"
_cell_length_a       7.292977784315745
_cell_length_b       7.292977929894457
_cell_length_c       7.292977731227873
_cell_angle_alpha    59.99999984129787
_cell_angle_beta     60.00000042180259
_cell_angle_gamma    60.00000128677254

_space_group_name_H-M_alt    "P 1"
_space_group_IT_number       1

loop_
  _space_group_symop_operation_xyz
  'x, y, z'

loop_
  _atom_site_type_symbol
  _atom_site_label
  _atom_site_symmetry_multiplicity
  _atom_site_fract_x
  _atom_site_fract_y
  _atom_site_fract_z
  _atom_site_occupancy
  Zn  Zn1       1.0  0.2500000324929077  0.2499999826483935  0.25000001193807636  1.0000
  Zn  Zn2       1.0  0.7499999827755311  0.7500000403093261  0.7499999633416474  1.0000
  Mg  Mg1       1.0  0.9999999988008689  0.9999999798478234  0.999999961313101  1.0000
  Br  Br1       1.0  0.25371869740703795  0.25371871638714655  0.7462812912494328  1.0000
  Br  Br2       1.0  0.746281305370573  0.7462813250434023  0.253718668698652  1.0000
  Br  Br3       1.0  0.7462812475024032  0.25371872994463657  0.2537187521259787  1.0000
  Br  Br4       1.0  0.2537187011711992  0.7462812980511261  0.7462813005523308  1.0000
  Br  Br5       1.0  0.2537187283036324  0.7462812472080269  0.25371876081528516  1.0000
  Br  Br6       1.0  0.7462812981934162  0.2537186850648948  0.7462812939568123  1.0000
