data_image0
_chemical_formula_structural       Zn2NbI6
_chemical_formula_sum              "Zn2 Nb1 I6"
_cell_length_a       8.070718693806926
_cell_length_b       8.070718740565358
_cell_length_c       8.070718805826273
_cell_angle_alpha    60.00000033132793
_cell_angle_beta     59.99999930713313
_cell_angle_gamma    59.99999962645823

_space_group_name_H-M_alt    "P 1"
_space_group_IT_number       1

loop_
  _space_group_symop_operation_xyz
  'x, y, z'

loop_
  _atom_site_type_symbol
  _atom_site_label
  _atom_site_symmetry_multiplicity
  _atom_site_fract_x
  _atom_site_fract_y
  _atom_site_fract_z
  _atom_site_occupancy
  Zn  Zn1       1.0  0.25000000015260837  0.25000000541208395  0.2500000037417208  1.0000
  Zn  Zn2       1.0  0.7499999965127933  0.7499999980260539  0.7500000024780253  1.0000
  Nb  Nb1       1.0  2.3571067905336446e-08  0.9999999893773843  0.9999999687448337  1.0000
  I   I1        1.0  0.24302911817910602  0.24302910007331557  0.756970869758637  1.0000
  I   I2        1.0  0.7569709029822529  0.7569708942597231  0.24302909531141084  1.0000
  I   I3        1.0  0.7569708979620614  0.24302909355743765  0.2430291088790927  1.0000
  I   I4        1.0  0.24302904439267245  0.7569709569237116  0.7569709406239862  1.0000
  I   I5        1.0  0.24302909930634248  0.7569708816577219  0.24302911243431943  1.0000
  I   I6        1.0  0.7569709231419491  0.24302907018485556  0.7569708992574795  1.0000
