data_image0
_chemical_formula_structural       Zn2NiBr6
_chemical_formula_sum              "Zn2 Ni1 Br6"
_cell_length_a       7.142906300695854
_cell_length_b       7.142906229584031
_cell_length_c       7.142906312827867
_cell_angle_alpha    60.00000066072664
_cell_angle_beta     60.00000002601016
_cell_angle_gamma    59.99999987232958

_space_group_name_H-M_alt    "P 1"
_space_group_IT_number       1

loop_
  _space_group_symop_operation_xyz
  'x, y, z'

loop_
  _atom_site_type_symbol
  _atom_site_label
  _atom_site_symmetry_multiplicity
  _atom_site_fract_x
  _atom_site_fract_y
  _atom_site_fract_z
  _atom_site_occupancy
  Zn  Zn1       1.0  0.2500000058736508  0.24999999189929226  0.2500000065475915  1.0000
  Zn  Zn2       1.0  0.7500000177190138  0.7499999705539836  0.7500000207657002  1.0000
  Ni  Ni1       1.0  0.9999999939091423  8.573155176908535e-09  1.5884167465021115e-10  1.0000
  Br  Br1       1.0  0.24018558561441034  0.24018560744890477  0.7598144065207721  1.0000
  Br  Br2       1.0  0.7598144171253225  0.7598144030140398  0.24018559461423805  1.0000
  Br  Br3       1.0  0.759814444070873  0.24018557526032464  0.2401855444192602  1.0000
  Br  Br4       1.0  0.24018556304508648  0.7598144317733576  0.7598144268424704  1.0000
  Br  Br5       1.0  0.24018556032025606  0.7598144532058264  0.2401855469077407  1.0000
  Br  Br6       1.0  0.7598144260576575  0.2401855675449041  0.7598144292644793  1.0000
