data_image0
_chemical_formula_structural       Zn2NiF6
_chemical_formula_sum              "Zn2 Ni1 F6"
_cell_length_a       5.134596822180236
_cell_length_b       5.134596895710889
_cell_length_c       5.134596878758417
_cell_angle_alpha    59.9999991048404
_cell_angle_beta     59.99999993505619
_cell_angle_gamma    60.00000034213225

_space_group_name_H-M_alt    "P 1"
_space_group_IT_number       1

loop_
  _space_group_symop_operation_xyz
  'x, y, z'

loop_
  _atom_site_type_symbol
  _atom_site_label
  _atom_site_symmetry_multiplicity
  _atom_site_fract_x
  _atom_site_fract_y
  _atom_site_fract_z
  _atom_site_occupancy
  Zn  Zn1       1.0  0.2500000389472221  0.24999996766789334  0.2499999273166485  1.0000
  Zn  Zn2       1.0  0.7499999932438032  0.749999976947342  0.7499999995867289  1.0000
  Ni  Ni1       1.0  7.0194220307966575e-09  0.9999999856883229  1.6985550548222515e-09  1.0000
  F   F1        1.0  0.25197501573064657  0.25197503487665235  0.7480250125474306  1.0000
  F   F2        1.0  0.7480249750025241  0.7480250003792024  0.2519750241470704  1.0000
  F   F3        1.0  0.7480249756222795  0.2519750172983278  0.2519750368374195  1.0000
  F   F4        1.0  0.2519750894831948  0.7480249702519377  0.7480249573101366  1.0000
  F   F5        1.0  0.2519749725179326  0.7480250265522723  0.2519751165150561  1.0000
  F   F6        1.0  0.7480249414810595  0.2519750230152593  0.7480249338625424  1.0000
