data_image0
_chemical_formula_structural       Zn2NiI6
_chemical_formula_sum              "Zn2 Ni1 I6"
_cell_length_a       7.567608664669652
_cell_length_b       7.56760868319375
_cell_length_c       7.567608765381777
_cell_angle_alpha    59.99999897083849
_cell_angle_beta     59.99999923173943
_cell_angle_gamma    60.00000004138683

_space_group_name_H-M_alt    "P 1"
_space_group_IT_number       1

loop_
  _space_group_symop_operation_xyz
  'x, y, z'

loop_
  _atom_site_type_symbol
  _atom_site_label
  _atom_site_symmetry_multiplicity
  _atom_site_fract_x
  _atom_site_fract_y
  _atom_site_fract_z
  _atom_site_occupancy
  Zn  Zn1       1.0  0.2500000030195986  0.2500000032413936  0.25000000123557903  1.0000
  Zn  Zn2       1.0  0.749999993445984  0.7500000016321604  0.7499999983806753  1.0000
  Ni  Ni1       1.0  8.261256035026466e-09  0.9999999935263835  4.139166435395719e-08  1.0000
  I   I1        1.0  0.251419891896598  0.2514198890965372  0.7485801082175336  1.0000
  I   I2        1.0  0.7485801065417407  0.7485801190138249  0.25141989275820276  1.0000
  I   I3        1.0  0.7485801032517541  0.25141990563185723  0.25141987634490504  1.0000
  I   I4        1.0  0.251419926166295  0.7485800782024441  0.7485800789935225  1.0000
  I   I5        1.0  0.2514198774666576  0.7485801056377671  0.25141991041414324  1.0000
  I   I6        1.0  0.7485800908091129  0.2514199105646152  0.7485800923469175  1.0000
