data_image0
_chemical_formula_structural       Zn2NbBr6
_chemical_formula_sum              "Zn2 Nb1 Br6"
_cell_length_a       7.646417165152158
_cell_length_b       7.646417182057631
_cell_length_c       7.646417067504576
_cell_angle_alpha    60.00000049151919
_cell_angle_beta     60.00000018177993
_cell_angle_gamma    60.0000001068663

_space_group_name_H-M_alt    "P 1"
_space_group_IT_number       1

loop_
  _space_group_symop_operation_xyz
  'x, y, z'

loop_
  _atom_site_type_symbol
  _atom_site_label
  _atom_site_symmetry_multiplicity
  _atom_site_fract_x
  _atom_site_fract_y
  _atom_site_fract_z
  _atom_site_occupancy
  Zn  Zn1       1.0  0.2500000065185977  0.24999997599384888  0.25000000779068804  1.0000
  Zn  Zn2       1.0  0.7499999635426087  0.750000014474634  0.7500000342881539  1.0000
  Nb  Nb1       1.0  0.9999999794681191  2.0822409921691656e-08  1.8163964375345758e-08  1.0000
  Br  Br1       1.0  0.23574797439757342  0.2357479771228878  0.7642520332847307  1.0000
  Br  Br2       1.0  0.7642520432860649  0.7642519973283567  0.23574798776030612  1.0000
  Br  Br3       1.0  0.7642520137081903  0.23574796124647115  0.23574804060559099  1.0000
  Br  Br4       1.0  0.2357479805149319  0.7642520292220115  0.7642519632362518  1.0000
  Br  Br5       1.0  0.23574799528066823  0.7642520159519103  0.23574799594782267  1.0000
  Br  Br6       1.0  0.7642520433457213  0.2357479953389821  0.7642519282003074  1.0000
