data_image0
_chemical_formula_structural       Zn2NiCl6
_chemical_formula_sum              "Zn2 Ni1 Cl6"
_cell_length_a       6.86912887308869
_cell_length_b       6.869129072598953
_cell_length_c       6.869129129096575
_cell_angle_alpha    59.9999999367381
_cell_angle_beta     60.00000046413161
_cell_angle_gamma    60.000000588362724

_space_group_name_H-M_alt    "P 1"
_space_group_IT_number       1

loop_
  _space_group_symop_operation_xyz
  'x, y, z'

loop_
  _atom_site_type_symbol
  _atom_site_label
  _atom_site_symmetry_multiplicity
  _atom_site_fract_x
  _atom_site_fract_y
  _atom_site_fract_z
  _atom_site_occupancy
  Zn  Zn1       1.0  0.24999951453512592  0.2500003522466657  0.2500002806370934  1.0000
  Zn  Zn2       1.0  0.7500001216804347  0.7499996660236736  0.7499995501178992  1.0000
  Ni  Ni1       1.0  0.9999999987763628  6.418690770230781e-08  0.9999999248447062  1.0000
  Cl  Cl1       1.0  0.23795193607282641  0.2379520754194521  0.7620479759758015  1.0000
  Cl  Cl2       1.0  0.7620480871981071  0.7620478911447655  0.2379522068211067  1.0000
  Cl  Cl3       1.0  0.7620479872575233  0.23795196452226036  0.2379521173734944  1.0000
  Cl  Cl4       1.0  0.23795212755067946  0.7620480501821382  0.7620479402647226  1.0000
  Cl  Cl5       1.0  0.23795213077358388  0.7620478169502862  0.23795204799651237  1.0000
  Cl  Cl6       1.0  0.7620480752339895  0.23795214604799242  0.7620479535003647  1.0000
