data_image0
_chemical_formula_structural       Zn2NbCl6
_chemical_formula_sum              "Zn2 Nb1 Cl6"
_cell_length_a       7.541776616662729
_cell_length_b       7.5417763722142475
_cell_length_c       7.541776465729008
_cell_angle_alpha    60.000000692930755
_cell_angle_beta     59.999999708552195
_cell_angle_gamma    59.999998961200866

_space_group_name_H-M_alt    "P 1"
_space_group_IT_number       1

loop_
  _space_group_symop_operation_xyz
  'x, y, z'

loop_
  _atom_site_type_symbol
  _atom_site_label
  _atom_site_symmetry_multiplicity
  _atom_site_fract_x
  _atom_site_fract_y
  _atom_site_fract_z
  _atom_site_occupancy
  Zn  Zn1       1.0  0.24999992534596593  0.2500001881101926  0.24999993521912978  1.0000
  Zn  Zn2       1.0  0.7500000695212234  0.749999840049999  0.7499998977428861  1.0000
  Nb  Nb1       1.0  0.9999999971395409  0.9999999626492082  3.0713205490693546e-08  1.0000
  Cl  Cl1       1.0  0.2233966772926323  0.22339671159847127  0.7766033421739699  1.0000
  Cl  Cl2       1.0  0.7766033355918553  0.7766033084419871  0.22339675633256278  1.0000
  Cl  Cl3       1.0  0.7766033198334548  0.22339672160958368  0.22339670638020714  1.0000
  Cl  Cl4       1.0  0.22339670695543093  0.7766032383448167  0.7766033330084068  1.0000
  Cl  Cl5       1.0  0.22339667900460317  0.7766032830240299  0.22339675335972498  1.0000
  Cl  Cl6       1.0  0.7766032911027362  0.22339673214458472  0.7766032655473951  1.0000
