data_image0
_chemical_formula_structural       Zn2NbF6
_chemical_formula_sum              "Zn2 Nb1 F6"
_cell_length_a       7.133715856413408
_cell_length_b       7.133717464218791
_cell_length_c       7.133714634101059
_cell_angle_alpha    59.999998985896724
_cell_angle_beta     60.00000533008127
_cell_angle_gamma    60.00000201317446

_space_group_name_H-M_alt    "P 1"
_space_group_IT_number       1

loop_
  _space_group_symop_operation_xyz
  'x, y, z'

loop_
  _atom_site_type_symbol
  _atom_site_label
  _atom_site_symmetry_multiplicity
  _atom_site_fract_x
  _atom_site_fract_y
  _atom_site_fract_z
  _atom_site_occupancy
  Zn  Zn1       1.0  0.24999995095613486  0.2500000651856709  0.2499999411623486  1.0000
  Zn  Zn2       1.0  0.7500000242549353  0.7499998659237899  0.7499999923252572  1.0000
  Nb  Nb1       1.0  1.1494115248766134e-07  0.9999999708137204  0.9999999795512741  1.0000
  F   F1        1.0  0.19121285404235847  0.19121299364539251  0.8087871051273701  1.0000
  F   F2        1.0  0.8087871304710419  0.8087869872523762  0.1912130525396665  1.0000
  F   F3        1.0  0.8087869592025247  0.19121301948221056  0.19121293161637848  1.0000
  F   F4        1.0  0.19121296576295094  0.8087870283723291  0.8087870667470687  1.0000
  F   F5        1.0  0.19121288952224372  0.8087869720453905  0.1912129481959588  1.0000
  F   F6        1.0  0.8087869179997365  0.1912131513501078  0.8087869884128897  1.0000
