data_image0
_chemical_formula_structural       Zn2PdCl6
_chemical_formula_sum              "Zn2 Pd1 Cl6"
_cell_length_a       7.009099697038434
_cell_length_b       7.009099336309573
_cell_length_c       7.009099222759383
_cell_angle_alpha    60.00000132724161
_cell_angle_beta     60.00000147743351
_cell_angle_gamma    59.999999844584785

_space_group_name_H-M_alt    "P 1"
_space_group_IT_number       1

loop_
  _space_group_symop_operation_xyz
  'x, y, z'

loop_
  _atom_site_type_symbol
  _atom_site_label
  _atom_site_symmetry_multiplicity
  _atom_site_fract_x
  _atom_site_fract_y
  _atom_site_fract_z
  _atom_site_occupancy
  Zn  Zn1       1.0  0.24999999563527597  0.2500001242468903  0.24999989569127207  1.0000
  Zn  Zn2       1.0  0.7500000668564395  0.7499998660050802  0.7500000759524753  1.0000
  Pd  Pd1       1.0  0.9999999921625816  0.9999999790316303  0.9999999830151232  1.0000
  Cl  Cl1       1.0  0.23731330490225358  0.23731349440917995  0.7626865971516709  1.0000
  Cl  Cl2       1.0  0.7626866715233378  0.7626865168111596  0.2373133670928829  1.0000
  Cl  Cl3       1.0  0.7626865857619815  0.2373133414966329  0.23731339219027694  1.0000
  Cl  Cl4       1.0  0.23731336611772452  0.7626867186499025  0.7626866169327963  1.0000
  Cl  Cl5       1.0  0.23731341024587072  0.7626866477737471  0.23731334724029304  1.0000
  Cl  Cl6       1.0  0.7626866022576186  0.2373133145203982  0.7626867004711184  1.0000
