data_image0
_chemical_formula_structural       Zn2PdI6
_chemical_formula_sum              "Zn2 Pd1 I6"
_cell_length_a       7.624390764011554
_cell_length_b       7.6243907531832695
_cell_length_c       7.624390772282278
_cell_angle_alpha    60.00000029123171
_cell_angle_beta     59.99999991050726
_cell_angle_gamma    60.00000037376174

_space_group_name_H-M_alt    "P 1"
_space_group_IT_number       1

loop_
  _space_group_symop_operation_xyz
  'x, y, z'

loop_
  _atom_site_type_symbol
  _atom_site_label
  _atom_site_symmetry_multiplicity
  _atom_site_fract_x
  _atom_site_fract_y
  _atom_site_fract_z
  _atom_site_occupancy
  Zn  Zn1       1.0  0.25000000792455823  0.250000001047479  0.24999999269088144  1.0000
  Zn  Zn2       1.0  0.7499999966967297  0.74999999350433  0.7500000016764912  1.0000
  Pd  Pd1       1.0  0.9999999916165315  1.6063511274657484e-08  7.964200472928626e-09  1.0000
  I   I1        1.0  0.2524594597444058  0.25245946178211304  0.7475405434836192  1.0000
  I   I2        1.0  0.7475405478139782  0.7475405375887493  0.252459474548863  1.0000
  I   I3        1.0  0.7475405412479635  0.2524594412956057  0.25245947657045803  1.0000
  I   I4        1.0  0.25245946266989866  0.747540537192692  0.7475405209340624  1.0000
  I   I5        1.0  0.2524594616206914  0.7475405365991903  0.25245946770943073  1.0000
  I   I6        1.0  0.7475405265092661  0.25245947562248094  0.7475405142644542  1.0000
