data_image0
_chemical_formula_structural       Zn2PdBr6
_chemical_formula_sum              "Zn2 Pd1 Br6"
_cell_length_a       7.236827560648962
_cell_length_b       7.236827484429832
_cell_length_c       7.23682744188472
_cell_angle_alpha    60.00000006046109
_cell_angle_beta     60.00000036517392
_cell_angle_gamma    59.999999877526555

_space_group_name_H-M_alt    "P 1"
_space_group_IT_number       1

loop_
  _space_group_symop_operation_xyz
  'x, y, z'

loop_
  _atom_site_type_symbol
  _atom_site_label
  _atom_site_symmetry_multiplicity
  _atom_site_fract_x
  _atom_site_fract_y
  _atom_site_fract_z
  _atom_site_occupancy
  Zn  Zn1       1.0  0.24999998788638433  0.2499999482500438  0.2500000422671913  1.0000
  Zn  Zn2       1.0  0.7499999931346156  0.7500000004489215  0.7499999844688917  1.0000
  Pd  Pd1       1.0  9.283170140648291e-09  1.523140337433639e-08  0.9999999822154293  1.0000
  Br  Br1       1.0  0.24480743826721016  0.2448074625680605  0.7551925473633964  1.0000
  Br  Br2       1.0  0.7551925774529951  0.7551925352098712  0.2448074388654219  1.0000
  Br  Br3       1.0  0.7551925581299042  0.24480744732522214  0.24480745249376998  1.0000
  Br  Br4       1.0  0.2448074529805039  0.7551925690688692  0.7551925460773606  1.0000
  Br  Br5       1.0  0.24480743489348547  0.7551925542701328  0.2448074428443617  1.0000
  Br  Br6       1.0  0.7551925483341992  0.2448074739706055  0.7551925513084184  1.0000
