data_image0
_chemical_formula_structural       Zn2ScI6
_chemical_formula_sum              "Zn2 Sc1 I6"
_cell_length_a       8.09541666387901
_cell_length_b       8.09541648608239
_cell_length_c       8.095416518235725
_cell_angle_alpha    60.00000058575279
_cell_angle_beta     60.000000455644326
_cell_angle_gamma    59.99999934011371

_space_group_name_H-M_alt    "P 1"
_space_group_IT_number       1

loop_
  _space_group_symop_operation_xyz
  'x, y, z'

loop_
  _atom_site_type_symbol
  _atom_site_label
  _atom_site_symmetry_multiplicity
  _atom_site_fract_x
  _atom_site_fract_y
  _atom_site_fract_z
  _atom_site_occupancy
  Zn  Zn1       1.0  0.2500000038852919  0.24999999157227124  0.2500000059421195  1.0000
  Zn  Zn2       1.0  0.7499999961957591  0.7500000125389835  0.7499999856457951  1.0000
  Sc  Sc1       1.0  2.5358136749405126e-08  0.9999999667164899  0.9999999644341458  1.0000
  I   I1        1.0  0.24925560082598766  0.24925564955143892  0.7507443649999702  1.0000
  I   I2        1.0  0.7507443683645204  0.7507443787660049  0.24925563734172285  1.0000
  I   I3        1.0  0.7507443952462881  0.24925561939156804  0.2492555832817665  1.0000
  I   I4        1.0  0.24925558140728507  0.7507444164903098  0.7507444325457139  1.0000
  I   I5        1.0  0.24925560674200387  0.7507443682753299  0.24925562239711094  1.0000
  I   I6        1.0  0.7507444227315485  0.24925559044932108  0.7507444105400607  1.0000
