data_image0
_chemical_formula_structural       Zn2SI6
_chemical_formula_sum              "Zn2 S1 I6"
_cell_length_a       7.688485324032484
_cell_length_b       7.688485187821897
_cell_length_c       7.688485504380008
_cell_angle_alpha    59.99999963043934
_cell_angle_beta     59.99999902151234
_cell_angle_gamma    60.000001059658246

_space_group_name_H-M_alt    "P 1"
_space_group_IT_number       1

loop_
  _space_group_symop_operation_xyz
  'x, y, z'

loop_
  _atom_site_type_symbol
  _atom_site_label
  _atom_site_symmetry_multiplicity
  _atom_site_fract_x
  _atom_site_fract_y
  _atom_site_fract_z
  _atom_site_occupancy
  Zn  Zn1       1.0  0.24999999770491757  0.2500000014191212  0.2500000016455367  1.0000
  Zn  Zn2       1.0  0.7500000011550241  0.7500000026644039  0.7500000030136006  1.0000
  S   S1        1.0  4.093017998818008e-08  0.9999999538041642  7.546901867754898e-08  1.0000
  I   I1        1.0  0.2652320854701986  0.265232103868702  0.7347678829325605  1.0000
  I   I2        1.0  0.734767885734228  0.7347679065866618  0.26523208424450295  1.0000
  I   I3        1.0  0.7347679007124297  0.2652321116923421  0.26523205976116165  1.0000
  I   I4        1.0  0.26523208787656066  0.7347679322151806  0.7347679106117586  1.0000
  I   I5        1.0  0.2652321124702948  0.7347678883422935  0.26523209320926905  1.0000
  I   I6        1.0  0.7347678877249287  0.26523209821867233  0.7347678948312275  1.0000
