data_image0
_chemical_formula_structural       Zn2ScF6
_chemical_formula_sum              "Zn2 Sc1 F6"
_cell_length_a       5.6576063306059465
_cell_length_b       5.65760640427218
_cell_length_c       5.657606478000302
_cell_angle_alpha    59.99999882555294
_cell_angle_beta     59.99999722177799
_cell_angle_gamma    59.99999799028244

_space_group_name_H-M_alt    "P 1"
_space_group_IT_number       1

loop_
  _space_group_symop_operation_xyz
  'x, y, z'

loop_
  _atom_site_type_symbol
  _atom_site_label
  _atom_site_symmetry_multiplicity
  _atom_site_fract_x
  _atom_site_fract_y
  _atom_site_fract_z
  _atom_site_occupancy
  Zn  Zn1       1.0  0.25000000166729003  0.25000008986688865  0.2499998804505765  1.0000
  Zn  Zn2       1.0  0.7499999485799388  0.7500000531230965  0.7499999563222051  1.0000
  Sc  Sc1       1.0  0.9999999797353456  0.9999999567044863  3.354761650019718e-08  1.0000
  F   F1        1.0  0.24878012471423464  0.24878024034787471  0.7512198163566671  1.0000
  F   F2        1.0  0.7512197689235327  0.7512198030624287  0.24878024875090005  1.0000
  F   F3        1.0  0.751219812548399  0.24878023395413515  0.2487802192435208  1.0000
  F   F4        1.0  0.24878030831980974  0.751219666580969  0.7512198531773165  1.0000
  F   F5        1.0  0.24878029821715317  0.7512197321197773  0.2487802052676416  1.0000
  F   F6        1.0  0.7512197502054145  0.2487802571711316  0.7512197688539869  1.0000
