data_image0
_chemical_formula_structural       Zn2ScBr6
_chemical_formula_sum              "Zn2 Sc1 Br6"
_cell_length_a       7.517980480801049
_cell_length_b       7.5179803635287
_cell_length_c       7.517980618529304
_cell_angle_alpha    59.999999485885596
_cell_angle_beta     59.99999874351066
_cell_angle_gamma    59.99999943301114

_space_group_name_H-M_alt    "P 1"
_space_group_IT_number       1

loop_
  _space_group_symop_operation_xyz
  'x, y, z'

loop_
  _atom_site_type_symbol
  _atom_site_label
  _atom_site_symmetry_multiplicity
  _atom_site_fract_x
  _atom_site_fract_y
  _atom_site_fract_z
  _atom_site_occupancy
  Zn  Zn1       1.0  0.24999995816928283  0.24999999258004266  0.25000002597287374  1.0000
  Zn  Zn2       1.0  0.7499999718589582  0.7500000543072464  0.749999965686763  1.0000
  Sc  Sc1       1.0  3.3542670393821496e-08  0.99999995927281  6.876933622048397e-08  1.0000
  Br  Br1       1.0  0.24772718885048906  0.2477271658747826  0.752272866648065  1.0000
  Br  Br2       1.0  0.7522728280596811  0.7522727816381622  0.2477272243678879  1.0000
  Br  Br3       1.0  0.7522728306761254  0.2477271562715197  0.24772718567040422  1.0000
  Br  Br4       1.0  0.24772724750043423  0.7522727733214603  0.752272773270349  1.0000
  Br  Br5       1.0  0.24772717896457486  0.7522728598331745  0.24772714459152806  1.0000
  Br  Br6       1.0  0.7522727519314164  0.24772724895944356  0.7522727465140594  1.0000
