data_image0
_chemical_formula_structural       Zn2SCl6
_chemical_formula_sum              "Zn2 S1 Cl6"
_cell_length_a       7.100007055970608
_cell_length_b       7.1000064470332145
_cell_length_c       7.1000057184422305
_cell_angle_alpha    60.00000365216928
_cell_angle_beta     60.000006647121566
_cell_angle_gamma    60.000005419906515

_space_group_name_H-M_alt    "P 1"
_space_group_IT_number       1

loop_
  _space_group_symop_operation_xyz
  'x, y, z'

loop_
  _atom_site_type_symbol
  _atom_site_label
  _atom_site_symmetry_multiplicity
  _atom_site_fract_x
  _atom_site_fract_y
  _atom_site_fract_z
  _atom_site_occupancy
  Zn  Zn1       1.0  0.24999994714110554  0.2499997114445922  0.25000018758136106  1.0000
  Zn  Zn2       1.0  0.750000209764221  0.750000088253897  0.7500000142895396  1.0000
  S   S1        1.0  0.9999999630536647  3.277483005547596e-08  0.9999999358886228  1.0000
  Cl  Cl1       1.0  0.2343516630945992  0.23435164571718511  0.7656483512308325  1.0000
  Cl  Cl2       1.0  0.7656483334233279  0.7656484058300042  0.2343516091349275  1.0000
  Cl  Cl3       1.0  0.7656482777270751  0.2343517309747683  0.23435162113623662  1.0000
  Cl  Cl4       1.0  0.23435157189339664  0.7656484050969806  0.765648385908916  1.0000
  Cl  Cl5       1.0  0.23435164299496505  0.7656484095545913  0.23435154928285518  1.0000
  Cl  Cl6       1.0  0.7656483974848408  0.23435155401805113  0.7656483668921091  1.0000
