data_image0
_chemical_formula_structural       Zn2SBr6
_chemical_formula_sum              "Zn2 S1 Br6"
_cell_length_a       7.279056046038221
_cell_length_b       7.279055855817391
_cell_length_c       7.27905599899549
_cell_angle_alpha    59.999999778764604
_cell_angle_beta     60.00000025857324
_cell_angle_gamma    59.99999884962126

_space_group_name_H-M_alt    "P 1"
_space_group_IT_number       1

loop_
  _space_group_symop_operation_xyz
  'x, y, z'

loop_
  _atom_site_type_symbol
  _atom_site_label
  _atom_site_symmetry_multiplicity
  _atom_site_fract_x
  _atom_site_fract_y
  _atom_site_fract_z
  _atom_site_occupancy
  Zn  Zn1       1.0  0.2500000265371171  0.2500000069081717  0.24999997462571652  1.0000
  Zn  Zn2       1.0  0.7500000494078217  0.749999968565153  0.7500000131417534  1.0000
  S   S1        1.0  0.9999999330853403  1.514304141364408e-08  6.435233561642254e-08  1.0000
  Br  Br1       1.0  0.2474075709900924  0.24740767381517012  0.7525923786220704  1.0000
  Br  Br2       1.0  0.7525923468493985  0.7525923571826383  0.2474076412026186  1.0000
  Br  Br3       1.0  0.7525924221938382  0.2474076234730509  0.24740754326438638  1.0000
  Br  Br4       1.0  0.24740761092011515  0.7525923520002737  0.7525923779950873  1.0000
  Br  Br5       1.0  0.24740761773251124  0.7525923546741042  0.24740762532484417  1.0000
  Br  Br6       1.0  0.7525924238574488  0.24740764772018212  0.752592375776266  1.0000
