data_image0
_chemical_formula_structural       Zn2ScCl6
_chemical_formula_sum              "Zn2 Sc1 Cl6"
_cell_length_a       7.24109240181197
_cell_length_b       7.241092829256152
_cell_length_c       7.2410928409968855
_cell_angle_alpha    60.00000208695966
_cell_angle_beta     60.00000206499308
_cell_angle_gamma    60.00000421350151

_space_group_name_H-M_alt    "P 1"
_space_group_IT_number       1

loop_
  _space_group_symop_operation_xyz
  'x, y, z'

loop_
  _atom_site_type_symbol
  _atom_site_label
  _atom_site_symmetry_multiplicity
  _atom_site_fract_x
  _atom_site_fract_y
  _atom_site_fract_z
  _atom_site_occupancy
  Zn  Zn1       1.0  0.2500001507866436  0.25000020813599355  0.2499998805417652  1.0000
  Zn  Zn2       1.0  0.750000038503061  0.7499999715348292  0.7500002288495566  1.0000
  Sc  Sc1       1.0  2.8349954934554705e-08  0.9999999627896137  0.9999999422849004  1.0000
  Cl  Cl1       1.0  0.2421586821481593  0.24215861905258998  0.7578413192002856  1.0000
  Cl  Cl2       1.0  0.7578412932375107  0.7578412933799953  0.24215862198408522  1.0000
  Cl  Cl3       1.0  0.757841262002139  0.242158730748775  0.2421586411701913  1.0000
  Cl  Cl4       1.0  0.24215857403544044  0.7578412696356304  0.757841421001796  1.0000
  Cl  Cl5       1.0  0.24215865088920246  0.7578413344020937  0.24215857246805148  1.0000
  Cl  Cl6       1.0  0.7578413362062133  0.24215860509259093  0.7578413507114045  1.0000
