data_image0
_chemical_formula_structural       Zn2TiI6
_chemical_formula_sum              "Zn2 Ti1 I6"
_cell_length_a       8.025433110552788
_cell_length_b       8.025433105006867
_cell_length_c       8.025433319273553
_cell_angle_alpha    59.999998562307894
_cell_angle_beta     59.999998682593215
_cell_angle_gamma    60.000001559567195

_space_group_name_H-M_alt    "P 1"
_space_group_IT_number       1

loop_
  _space_group_symop_operation_xyz
  'x, y, z'

loop_
  _atom_site_type_symbol
  _atom_site_label
  _atom_site_symmetry_multiplicity
  _atom_site_fract_x
  _atom_site_fract_y
  _atom_site_fract_z
  _atom_site_occupancy
  Zn  Zn1       1.0  0.25000000799465705  0.2500000042086385  0.24999999826250716  1.0000
  Zn  Zn2       1.0  0.7499999992774858  0.7500000004172788  0.7500000007846961  1.0000
  Ti  Ti1       1.0  0.9999999782733691  0.999999957269774  3.347446739979117e-08  1.0000
  I   I1        1.0  0.23990027592173674  0.23990028708423594  0.7600997167534487  1.0000
  I   I2        1.0  0.7600997878401596  0.7600997984238954  0.2399002036394609  1.0000
  I   I3        1.0  0.7600996705276477  0.239900306120428  0.2399003129591919  1.0000
  I   I4        1.0  0.23990030975637727  0.7600996801925348  0.7600997112306249  1.0000
  I   I5        1.0  0.23990030739457238  0.7600996642511106  0.23990030884717517  1.0000
  I   I6        1.0  0.7600996699395458  0.23990030069673943  0.7600997125476878  1.0000
