data_image0
_chemical_formula_structural       Zn2TiCl6
_chemical_formula_sum              "Zn2 Ti1 Cl6"
_cell_length_a       7.371590639545052
_cell_length_b       7.371591124412022
_cell_length_c       7.371590573596341
_cell_angle_alpha    60.00000108512125
_cell_angle_beta     60.000002670024415
_cell_angle_gamma    60.000001108368956

_space_group_name_H-M_alt    "P 1"
_space_group_IT_number       1

loop_
  _space_group_symop_operation_xyz
  'x, y, z'

loop_
  _atom_site_type_symbol
  _atom_site_label
  _atom_site_symmetry_multiplicity
  _atom_site_fract_x
  _atom_site_fract_y
  _atom_site_fract_z
  _atom_site_occupancy
  Zn  Zn1       1.0  0.2500000461090188  0.24999993380944366  0.25000024838208285  1.0000
  Zn  Zn2       1.0  0.7500000795278399  0.7499999825251912  0.7500000789719609  1.0000
  Ti  Ti1       1.0  0.9999999981485201  1.495295229465155e-08  0.9999999201950596  1.0000
  Cl  Cl1       1.0  0.22571050648907046  0.22571057328836153  0.7742894531684419  1.0000
  Cl  Cl2       1.0  0.7742894884833069  0.7742895141744969  0.22571039272355306  1.0000
  Cl  Cl3       1.0  0.774289413291603  0.2257105042659714  0.2257105078515871  1.0000
  Cl  Cl4       1.0  0.22571050859655725  0.7742896097799106  0.7742893680737996  1.0000
  Cl  Cl5       1.0  0.2257104537632237  0.7742894106603518  0.22571051882705634  1.0000
  Cl  Cl6       1.0  0.7742894974798232  0.22571045084680913  0.7742895351616579  1.0000
