data_image0
_chemical_formula_structural       Zn2TiBr6
_chemical_formula_sum              "Zn2 Ti1 Br6"
_cell_length_a       7.507641119727585
_cell_length_b       7.507641586993463
_cell_length_c       7.507641667098407
_cell_angle_alpha    59.99999976564038
_cell_angle_beta     59.99999916550785
_cell_angle_gamma    59.999999727091456

_space_group_name_H-M_alt    "P 1"
_space_group_IT_number       1

loop_
  _space_group_symop_operation_xyz
  'x, y, z'

loop_
  _atom_site_type_symbol
  _atom_site_label
  _atom_site_symmetry_multiplicity
  _atom_site_fract_x
  _atom_site_fract_y
  _atom_site_fract_z
  _atom_site_occupancy
  Zn  Zn1       1.0  0.25000000821748536  0.2500000085844966  0.24999993971942078  1.0000
  Zn  Zn2       1.0  0.7499999687714792  0.749999971919566  0.7499999752459029  1.0000
  Ti  Ti1       1.0  3.546807390919527e-08  0.9999999951060065  0.9999999860449365  1.0000
  Br  Br1       1.0  0.23718864827061292  0.23718865813340267  0.7628113395686497  1.0000
  Br  Br2       1.0  0.762811359572326  0.7628113174766661  0.23718865299106576  1.0000
  Br  Br3       1.0  0.7628113265265755  0.2371886824773702  0.2371886674238726  1.0000
  Br  Br4       1.0  0.23718861115586515  0.7628113698052573  0.7628114017983836  1.0000
  Br  Br5       1.0  0.23718865918006543  0.7628113575494543  0.23718865243862436  1.0000
  Br  Br6       1.0  0.7628113841149415  0.2371886408992482  0.7628113802385028  1.0000
