data_image0
_chemical_formula_structural       Zn2VF6
_chemical_formula_sum              "Zn2 V1 F6"
_cell_length_a       5.152463151839583
_cell_length_b       5.152463094029366
_cell_length_c       5.1524633447372485
_cell_angle_alpha    59.99999939160864
_cell_angle_beta     59.999999229620045
_cell_angle_gamma    59.99999924229056

_space_group_name_H-M_alt    "P 1"
_space_group_IT_number       1

loop_
  _space_group_symop_operation_xyz
  'x, y, z'

loop_
  _atom_site_type_symbol
  _atom_site_label
  _atom_site_symmetry_multiplicity
  _atom_site_fract_x
  _atom_site_fract_y
  _atom_site_fract_z
  _atom_site_occupancy
  Zn  Zn1       1.0  0.24999999792587682  0.24999998379951252  0.2500000036902954  1.0000
  Zn  Zn2       1.0  0.750000012179952  0.7500000441018707  0.7499999555180594  1.0000
  V   V1        1.0  1.7656634126622277e-08  1.4262051176806905e-08  0.9999999762773806  1.0000
  F   F1        1.0  0.25550675206161994  0.2555067115777667  0.7444932778612898  1.0000
  F   F2        1.0  0.7444932400030689  0.7444932830454973  0.25550674582307925  1.0000
  F   F3        1.0  0.7444932673128396  0.25550671559275023  0.2555067541714097  1.0000
  F   F4        1.0  0.25550670458226327  0.744493279030514  0.7444932931834869  1.0000
  F   F5        1.0  0.2555067077993444  0.7444932624604167  0.2555067469379998  1.0000
  F   F6        1.0  0.7444932844012878  0.2555067250318214  0.7444932472499833  1.0000
