data_image0
_chemical_formula_structural       Zn2VBr6
_chemical_formula_sum              "Zn2 V1 Br6"
_cell_length_a       7.423530951161582
_cell_length_b       7.423531104457231
_cell_length_c       7.42353102625328
_cell_angle_alpha    60.00000008066484
_cell_angle_beta     59.999997919946686
_cell_angle_gamma    59.99999852583229

_space_group_name_H-M_alt    "P 1"
_space_group_IT_number       1

loop_
  _space_group_symop_operation_xyz
  'x, y, z'

loop_
  _atom_site_type_symbol
  _atom_site_label
  _atom_site_symmetry_multiplicity
  _atom_site_fract_x
  _atom_site_fract_y
  _atom_site_fract_z
  _atom_site_occupancy
  Zn  Zn1       1.0  0.24999999595197037  0.25000002028200674  0.24999993242825494  1.0000
  Zn  Zn2       1.0  0.7500001316053022  0.7499998909151324  0.7499999194880077  1.0000
  V   V1        1.0  0.9999999814126452  2.3097402312460704e-08  5.827383539371624e-09  1.0000
  Br  Br1       1.0  0.23461934624370454  0.2346193716162273  0.765380658210985  1.0000
  Br  Br2       1.0  0.7653806345799832  0.765380648468667  0.2346193931352865  1.0000
  Br  Br3       1.0  0.7653806661875561  0.234619303846439  0.23461935613463436  1.0000
  Br  Br4       1.0  0.23461932984569175  0.7653806799425377  0.7653806868958658  1.0000
  Br  Br5       1.0  0.23461931446764506  0.765380674753645  0.23461934303859402  1.0000
  Br  Br6       1.0  0.7653805992663639  0.23461938327698206  0.7653807026736333  1.0000
