data_image0
_chemical_formula_structural       Zn2VCl6
_chemical_formula_sum              "Zn2 V1 Cl6"
_cell_length_a       7.307239551574907
_cell_length_b       7.30723914076858
_cell_length_c       7.307239444927971
_cell_angle_alpha    60.00000303662958
_cell_angle_beta     60.00000158305926
_cell_angle_gamma    60.000002594814696

_space_group_name_H-M_alt    "P 1"
_space_group_IT_number       1

loop_
  _space_group_symop_operation_xyz
  'x, y, z'

loop_
  _atom_site_type_symbol
  _atom_site_label
  _atom_site_symmetry_multiplicity
  _atom_site_fract_x
  _atom_site_fract_y
  _atom_site_fract_z
  _atom_site_occupancy
  Zn  Zn1       1.0  0.25000010424761127  0.25000005614705306  0.24999988745946797  1.0000
  Zn  Zn2       1.0  0.7500000485458354  0.7500000460880153  0.7500001074585468  1.0000
  V   V1        1.0  0.9999999962014713  0.9999999782110814  0.999999982686594  1.0000
  Cl  Cl1       1.0  0.22189826447238864  0.22189829361931548  0.7781017391059522  1.0000
  Cl  Cl2       1.0  0.778101677484373  0.778101677882237  0.22189823637484224  1.0000
  Cl  Cl3       1.0  0.7781016194568564  0.22189834380644194  0.2218982935131434  1.0000
  Cl  Cl4       1.0  0.22189831225177034  0.7781016679208054  0.7781017039285307  1.0000
  Cl  Cl5       1.0  0.22189831376066477  0.7781016306722123  0.22189833738334067  1.0000
  Cl  Cl6       1.0  0.7781016666169686  0.22189828719508756  0.7781017360255297  1.0000
