data_image0
_chemical_formula_structural       Zn2VI6
_chemical_formula_sum              "Zn2 V1 I6"
_cell_length_a       7.859280901140603
_cell_length_b       7.85928082981375
_cell_length_c       7.859280828257486
_cell_angle_alpha    60.00000027127902
_cell_angle_beta     60.000000754230115
_cell_angle_gamma    59.999999160421915

_space_group_name_H-M_alt    "P 1"
_space_group_IT_number       1

loop_
  _space_group_symop_operation_xyz
  'x, y, z'

loop_
  _atom_site_type_symbol
  _atom_site_label
  _atom_site_symmetry_multiplicity
  _atom_site_fract_x
  _atom_site_fract_y
  _atom_site_fract_z
  _atom_site_occupancy
  Zn  Zn1       1.0  0.24999999256450742  0.2500000046068961  0.24999999841742282  1.0000
  Zn  Zn2       1.0  0.7500000039765106  0.749999996678924  0.7500000034054671  1.0000
  V   V1        1.0  0.9999999896263434  4.675026617886957e-09  0.9999999990321718  1.0000
  I   I1        1.0  0.23999432300562668  0.23999435156324286  0.7600056540499777  1.0000
  I   I2        1.0  0.7600056721552954  0.7600056450475509  0.23999434443856812  1.0000
  I   I3        1.0  0.7600057020390677  0.23999431600905707  0.2399943112021099  1.0000
  I   I4        1.0  0.23999431205874752  0.7600056634599723  0.760005701657444  1.0000
  I   I5        1.0  0.23999430750686035  0.7600056877121442  0.23999431171947166  1.0000
  I   I6        1.0  0.7600056962020065  0.23999432292372894  0.7600056792997052  1.0000
