data_image0
_chemical_formula_structural       Zr2CoO6
_chemical_formula_sum              "Zr2 Co1 O6"
_cell_length_a       4.932500156901803
_cell_length_b       4.932500176479714
_cell_length_c       4.932500540778806
_cell_angle_alpha    59.999997865882335
_cell_angle_beta     59.99999838650918
_cell_angle_gamma    59.999998723967934

_space_group_name_H-M_alt    "P 1"
_space_group_IT_number       1

loop_
  _space_group_symop_operation_xyz
  'x, y, z'

loop_
  _atom_site_type_symbol
  _atom_site_label
  _atom_site_symmetry_multiplicity
  _atom_site_fract_x
  _atom_site_fract_y
  _atom_site_fract_z
  _atom_site_occupancy
  Zr  Zr1       1.0  0.25000011857065185  0.2499998880488931  0.25000007199612323  1.0000
  Zr  Zr2       1.0  0.7500001608363663  0.7499999397608281  0.7499997843368207  1.0000
  Co  Co1       1.0  0.999999989808312  2.483010341622089e-09  5.859330893597395e-08  1.0000
  O   O1        1.0  0.2568979429169583  0.2568980880128197  0.7431019483229581  1.0000
  O   O2        1.0  0.7431019348027645  0.7431019756828846  0.2568980861969949  1.0000
  O   O3        1.0  0.7431019946539258  0.25689802345416834  0.25689803458812294  1.0000
  O   O4        1.0  0.25689797096101924  0.7431019732002567  0.7431020138332904  1.0000
  O   O5        1.0  0.2568978937786862  0.7431020080245537  0.25689810453664264  1.0000
  O   O6        1.0  0.7431019526559426  0.2568981003653369  0.7431019496345647  1.0000
