data_image0
_chemical_formula_structural       Zr2CrSe6
_chemical_formula_sum              "Zr2 Cr1 Se6"
_cell_length_a       6.462729181746071
_cell_length_b       6.462729054563721
_cell_length_c       6.462729181344978
_cell_angle_alpha    59.99999849189111
_cell_angle_beta     59.99999932369985
_cell_angle_gamma    59.99999868049333

_space_group_name_H-M_alt    "P 1"
_space_group_IT_number       1

loop_
  _space_group_symop_operation_xyz
  'x, y, z'

loop_
  _atom_site_type_symbol
  _atom_site_label
  _atom_site_symmetry_multiplicity
  _atom_site_fract_x
  _atom_site_fract_y
  _atom_site_fract_z
  _atom_site_occupancy
  Zr  Zr1       1.0  0.24999992451117853  0.25000004175703927  0.25000006801355734  1.0000
  Zr  Zr2       1.0  0.749999999922051  0.7500001214809415  0.7499997291180328  1.0000
  Cr  Cr1       1.0  2.006871261509394e-08  9.475446423598585e-09  2.081660019840545e-08  1.0000
  Se  Se1       1.0  0.2547422139596756  0.2547422111857057  0.745257756407118  1.0000
  Se  Se2       1.0  0.7452577953190456  0.7452577189562842  0.2547423392131395  1.0000
  Se  Se3       1.0  0.7452578420125907  0.254742172441377  0.2547422599714889  1.0000
  Se  Se4       1.0  0.2547422943205178  0.7452577785465957  0.7452577632459166  1.0000
  Se  Se5       1.0  0.25474216134200317  0.7452577801716834  0.254742260182635  1.0000
  Se  Se6       1.0  0.7452577525011523  0.2547421575506647  0.7452578081878671  1.0000
