data_image0
_chemical_formula_structural       Zr2CO6
_chemical_formula_sum              "Zr2 C1 O6"
_cell_length_a       4.699913012543069
_cell_length_b       4.699913060120343
_cell_length_c       4.699912885115868
_cell_angle_alpha    59.99999627679593
_cell_angle_beta     59.99999868759601
_cell_angle_gamma    59.999997834822665

_space_group_name_H-M_alt    "P 1"
_space_group_IT_number       1

loop_
  _space_group_symop_operation_xyz
  'x, y, z'

loop_
  _atom_site_type_symbol
  _atom_site_label
  _atom_site_symmetry_multiplicity
  _atom_site_fract_x
  _atom_site_fract_y
  _atom_site_fract_z
  _atom_site_occupancy
  Zr  Zr1       1.0  0.2500000894320069  0.2499999812489917  0.24999996760091972  1.0000
  Zr  Zr2       1.0  0.75000003573784  0.7499999854411961  0.7499998982328878  1.0000
  C   C1        1.0  1.569874134420794e-07  1.8501806566675148e-07  1.3325820954671522e-07  1.0000
  O   O1        1.0  0.23778676917713498  0.23778678357361796  0.7622132522154493  1.0000
  O   O2        1.0  0.7622130121096997  0.7622130502162522  0.23778699669356662  1.0000
  O   O3        1.0  0.762213080634864  0.23778690927254256  0.2377869200587707  1.0000
  O   O4        1.0  0.23778699730974268  0.7622130000881003  0.7622129703923451  1.0000
  O   O5        1.0  0.2377868431348416  0.7622132101853947  0.23778689874730627  1.0000
  O   O6        1.0  0.7622130014041351  0.2377869571582053  0.7622130070752274  1.0000
