data_image0
_chemical_formula_structural       Zr2CrO6
_chemical_formula_sum              "Zr2 Cr1 O6"
_cell_length_a       5.013675874679422
_cell_length_b       5.013675576504102
_cell_length_c       5.013675836064561
_cell_angle_alpha    59.99999913744741
_cell_angle_beta     59.99999736322018
_cell_angle_gamma    59.999999993247386

_space_group_name_H-M_alt    "P 1"
_space_group_IT_number       1

loop_
  _space_group_symop_operation_xyz
  'x, y, z'

loop_
  _atom_site_type_symbol
  _atom_site_label
  _atom_site_symmetry_multiplicity
  _atom_site_fract_x
  _atom_site_fract_y
  _atom_site_fract_z
  _atom_site_occupancy
  Zr  Zr1       1.0  0.25000014193422093  0.2500001390128931  0.2499997323998851  1.0000
  Zr  Zr2       1.0  0.7500001204043564  0.750000006646882  0.7500005144706575  1.0000
  Cr  Cr1       1.0  1.5586855034043243e-08  0.9999999877859588  1.8259038558715555e-08  1.0000
  O   O1        1.0  0.25641385386241106  0.25641365249100545  0.7435859484594114  1.0000
  O   O2        1.0  0.7435860852756203  0.7435864125560705  0.25641374637990666  1.0000
  O   O3        1.0  0.7435865260580484  0.25641374318466736  0.25641380413166165  1.0000
  O   O4        1.0  0.2564133450367747  0.7435861459802084  0.7435863098575044  1.0000
  O   O5        1.0  0.2564139816182172  0.7435860406933104  0.256413532491303  1.0000
  O   O6        1.0  0.7435859398654375  0.2564138631284133  0.7435863694660094  1.0000
