data_image0
_chemical_formula_structural       Zr2CS6
_chemical_formula_sum              "Zr2 C1 S6"
_cell_length_a       6.144196758237056
_cell_length_b       6.144196692908368
_cell_length_c       6.144196581272486
_cell_angle_alpha    60.000001658037185
_cell_angle_beta     60.000000491963
_cell_angle_gamma    59.99999878492827

_space_group_name_H-M_alt    "P 1"
_space_group_IT_number       1

loop_
  _space_group_symop_operation_xyz
  'x, y, z'

loop_
  _atom_site_type_symbol
  _atom_site_label
  _atom_site_symmetry_multiplicity
  _atom_site_fract_x
  _atom_site_fract_y
  _atom_site_fract_z
  _atom_site_occupancy
  Zr  Zr1       1.0  0.24999999625000666  0.24999981197510887  0.2500000920276869  1.0000
  Zr  Zr2       1.0  0.7499999137945331  0.7500000159861095  0.7499999340150526  1.0000
  C   C1        1.0  0.9999999707515644  0.9999997269129637  1.4453358125597083e-08  1.0000
  S   S1        1.0  0.23323972643167032  0.23323961471590893  0.766760322132281  1.0000
  S   S2        1.0  0.7667605066629257  0.7667605521124278  0.2332394868805192  1.0000
  S   S3        1.0  0.7667604260696487  0.233239529493037  0.23323964687083423  1.0000
  S   S4        1.0  0.2332394858866234  0.7667606253752934  0.7667605288800392  1.0000
  S   S5        1.0  0.23323949792455462  0.7667605403133299  0.2332395172550984  1.0000
  S   S6        1.0  0.7667604842511282  0.23323957867494793  0.7667604509025007  1.0000
