data_image0
_chemical_formula_structural       Zr2CrS6
_chemical_formula_sum              "Zr2 Cr1 S6"
_cell_length_a       6.168851767384085
_cell_length_b       6.168851946785523
_cell_length_c       6.168851717268619
_cell_angle_alpha    59.999999708865964
_cell_angle_beta     59.999999640065894
_cell_angle_gamma    59.99999939552041

_space_group_name_H-M_alt    "P 1"
_space_group_IT_number       1

loop_
  _space_group_symop_operation_xyz
  'x, y, z'

loop_
  _atom_site_type_symbol
  _atom_site_label
  _atom_site_symmetry_multiplicity
  _atom_site_fract_x
  _atom_site_fract_y
  _atom_site_fract_z
  _atom_site_occupancy
  Zr  Zr1       1.0  0.2500001025243804  0.2500000481386952  0.2500000148473661  1.0000
  Zr  Zr2       1.0  0.7500000739780684  0.7499998624936669  0.7499998013972539  1.0000
  Cr  Cr1       1.0  0.9999999817359395  0.9999999761755692  4.6981001694161936e-08  1.0000
  S   S1        1.0  0.2584181213296244  0.258418280067397  0.7415818344493528  1.0000
  S   S2        1.0  0.7415817472073837  0.7415818132189311  0.25841837190254463  1.0000
  S   S3        1.0  0.7415817576680693  0.25841818354404733  0.25841824308394246  1.0000
  S   S4        1.0  0.2584182581591789  0.741581776722545  0.7415817502597052  1.0000
  S   S5        1.0  0.2584181912501886  0.7415817283202009  0.2584181987696984  1.0000
  S   S6        1.0  0.7415817743200004  0.25841831533189946  0.7415817423466852  1.0000
