data_image0
_chemical_formula_structural       Zr2CrTe6
_chemical_formula_sum              "Zr2 Cr1 Te6"
_cell_length_a       6.946678838400808
_cell_length_b       6.946678899257509
_cell_length_c       6.946678823192549
_cell_angle_alpha    59.99999937951739
_cell_angle_beta     59.999999836881955
_cell_angle_gamma    60.00000019060981

_space_group_name_H-M_alt    "P 1"
_space_group_IT_number       1

loop_
  _space_group_symop_operation_xyz
  'x, y, z'

loop_
  _atom_site_type_symbol
  _atom_site_label
  _atom_site_symmetry_multiplicity
  _atom_site_fract_x
  _atom_site_fract_y
  _atom_site_fract_z
  _atom_site_occupancy
  Zr  Zr1       1.0  0.2500001481262752  0.25000022049868464  0.24999991680267014  1.0000
  Zr  Zr2       1.0  0.7500001949547701  0.749999968611382  0.7499996140778383  1.0000
  Cr  Cr1       1.0  0.9999999892372452  1.234145705320324e-08  2.3682774894587483e-08  1.0000
  Te  Te1       1.0  0.2554159267094395  0.2554160964643536  0.7445839856019493  1.0000
  Te  Te2       1.0  0.7445839694353041  0.7445839075238476  0.2554161823243573  1.0000
  Te  Te3       1.0  0.7445838918014933  0.25541594242011306  0.2554161027137285  1.0000
  Te  Te4       1.0  0.2554160478494945  0.7445839011291439  0.7445840157136672  1.0000
  Te  Te5       1.0  0.2554159302942752  0.7445839131954178  0.2554161169105677  1.0000
  Te  Te6       1.0  0.7445839092682826  0.25541603613775843  0.7445840375365774  1.0000
