data_image0
_chemical_formula_structural       Zr2CoSe6
_chemical_formula_sum              "Zr2 Co1 Se6"
_cell_length_a       6.462317506886569
_cell_length_b       6.462317194018409
_cell_length_c       6.462317350855971
_cell_angle_alpha    60.00000354268959
_cell_angle_beta     60.0000024340962
_cell_angle_gamma    60.00000368140305

_space_group_name_H-M_alt    "P 1"
_space_group_IT_number       1

loop_
  _space_group_symop_operation_xyz
  'x, y, z'

loop_
  _atom_site_type_symbol
  _atom_site_label
  _atom_site_symmetry_multiplicity
  _atom_site_fract_x
  _atom_site_fract_y
  _atom_site_fract_z
  _atom_site_occupancy
  Zr  Zr1       1.0  0.2499999481614435  0.2500002449075637  0.2499999742756195  1.0000
  Zr  Zr2       1.0  0.7499998383529246  0.7500004314890579  0.7499993455737877  1.0000
  Co  Co1       1.0  1.945685013689793e-08  0.9999999791526887  0.9999999604619847  1.0000
  Se  Se1       1.0  0.25110913236816734  0.2511087255363774  0.7488910977399093  1.0000
  Se  Se2       1.0  0.7488911758241004  0.748890986198394  0.2511091585152705  1.0000
  Se  Se3       1.0  0.7488910733118905  0.25110866717476105  0.2511091313077586  1.0000
  Se  Se4       1.0  0.25110893153575625  0.7488910540360482  0.7488911712985957  1.0000
  Se  Se5       1.0  0.2511088182179832  0.7488910477522069  0.2511089704411692  1.0000
  Se  Se6       1.0  0.7488910772154314  0.25110885160833557  0.7488911879297304  1.0000
