data_image0
_chemical_formula_structural       Zr2FeO6
_chemical_formula_sum              "Zr2 Fe1 O6"
_cell_length_a       5.011345274956863
_cell_length_b       5.011345141146337
_cell_length_c       5.011345474103605
_cell_angle_alpha    60.00000042164561
_cell_angle_beta     60.000000049720335
_cell_angle_gamma    60.00000085772931

_space_group_name_H-M_alt    "P 1"
_space_group_IT_number       1

loop_
  _space_group_symop_operation_xyz
  'x, y, z'

loop_
  _atom_site_type_symbol
  _atom_site_label
  _atom_site_symmetry_multiplicity
  _atom_site_fract_x
  _atom_site_fract_y
  _atom_site_fract_z
  _atom_site_occupancy
  Zr  Zr1       1.0  0.2500000725856984  0.24999995448077197  0.2500000524505887  1.0000
  Zr  Zr2       1.0  0.7499999316319969  0.750000569742229  0.7499999173322883  1.0000
  Fe  Fe1       1.0  0.9999999970209508  0.9999999951121119  3.1870077690166523e-08  1.0000
  O   O1        1.0  0.254178807188106  0.2541787108346671  0.7458211899537001  1.0000
  O   O2        1.0  0.7458212493150634  0.7458211657430728  0.25417872031955513  1.0000
  O   O3        1.0  0.7458211662271956  0.25417866927588956  0.2541788638318805  1.0000
  O   O4        1.0  0.2541787814687299  0.7458211535350758  0.7458212394748183  1.0000
  O   O5        1.0  0.2541787789870953  0.7458211683536261  0.25417879860857995  1.0000
  O   O6        1.0  0.7458212206585738  0.2541785884708393  0.7458211800153386  1.0000
