data_image0
_chemical_formula_structural       Zr2GeS6
_chemical_formula_sum              "Zr2 Ge1 S6"
_cell_length_a       6.312911693499699
_cell_length_b       6.3129117596666715
_cell_length_c       6.31291168836495
_cell_angle_alpha    60.00000145661773
_cell_angle_beta     60.00000142864911
_cell_angle_gamma    60.000001425808016

_space_group_name_H-M_alt    "P 1"
_space_group_IT_number       1

loop_
  _space_group_symop_operation_xyz
  'x, y, z'

loop_
  _atom_site_type_symbol
  _atom_site_label
  _atom_site_symmetry_multiplicity
  _atom_site_fract_x
  _atom_site_fract_y
  _atom_site_fract_z
  _atom_site_occupancy
  Zr  Zr1       1.0  0.24999973611688509  0.24999992109006283  0.25000005662446373  1.0000
  Zr  Zr2       1.0  0.7500001163367022  0.7500003317087476  0.7500001935916087  1.0000
  Ge  Ge1       1.0  1.3117590787663045e-08  1.552050675826622e-08  1.5777998526046616e-08  1.0000
  S   S1        1.0  0.2546820630283154  0.25468190266990354  0.7453180665459562  1.0000
  S   S2        1.0  0.7453180704679321  0.7453179679364312  0.25468165764896505  1.0000
  S   S3        1.0  0.7453181121160118  0.2546819200089943  0.25468208439909773  1.0000
  S   S4        1.0  0.254681854560362  0.7453180340200644  0.7453179792967575  1.0000
  S   S5        1.0  0.2546819315603146  0.7453181334186465  0.2546819733309602  1.0000
  S   S6        1.0  0.7453181275701066  0.2546817682287022  0.7453179483564835  1.0000
