data_image0
_chemical_formula_structural       Zr2GeO6
_chemical_formula_sum              "Zr2 Ge1 O6"
_cell_length_a       5.026672298371341
_cell_length_b       5.026672430649867
_cell_length_c       5.026672501686904
_cell_angle_alpha    59.99999894790437
_cell_angle_beta     59.99999987365298
_cell_angle_gamma    60.00000085078542

_space_group_name_H-M_alt    "P 1"
_space_group_IT_number       1

loop_
  _space_group_symop_operation_xyz
  'x, y, z'

loop_
  _atom_site_type_symbol
  _atom_site_label
  _atom_site_symmetry_multiplicity
  _atom_site_fract_x
  _atom_site_fract_y
  _atom_site_fract_z
  _atom_site_occupancy
  Zr  Zr1       1.0  0.25000021529738736  0.24999979287401883  0.2500001560822044  1.0000
  Zr  Zr2       1.0  0.749999997224416  0.7500001875375074  0.7499996997946379  1.0000
  Ge  Ge1       1.0  0.9999999916235756  0.9999999975635079  0.9999999815338069  1.0000
  O   O1        1.0  0.25543416741501196  0.25543424944344667  0.7445658103501106  1.0000
  O   O2        1.0  0.7445657956453688  0.7445657626424758  0.25543425190023566  1.0000
  O   O3        1.0  0.7445656518969971  0.25543411133221255  0.2554343121436772  1.0000
  O   O4        1.0  0.25543427698486815  0.7445658861347557  0.74456576057969  1.0000
  O   O5        1.0  0.25543418099059856  0.7445658185210925  0.2554342072562667  1.0000
  O   O6        1.0  0.7445657360114026  0.25543415945393755  0.7445658513121874  1.0000
