data_image0
_chemical_formula_structural       Zr2GeTe6
_chemical_formula_sum              "Zr2 Ge1 Te6"
_cell_length_a       7.1009694607628
_cell_length_b       7.10096960906021
_cell_length_c       7.100969508097763
_cell_angle_alpha    59.999999042527534
_cell_angle_beta     59.99999997121787
_cell_angle_gamma    60.00000069304158

_space_group_name_H-M_alt    "P 1"
_space_group_IT_number       1

loop_
  _space_group_symop_operation_xyz
  'x, y, z'

loop_
  _atom_site_type_symbol
  _atom_site_label
  _atom_site_symmetry_multiplicity
  _atom_site_fract_x
  _atom_site_fract_y
  _atom_site_fract_z
  _atom_site_occupancy
  Zr  Zr1       1.0  0.2499999742032827  0.250000055228672  0.24999998378668079  1.0000
  Zr  Zr2       1.0  0.749999881813321  0.749999917320972  0.7500001241059989  1.0000
  Ge  Ge1       1.0  0.9999999672465368  6.899028963678717e-08  0.9999999720237771  1.0000
  Te  Te1       1.0  0.26229193376073445  0.26229194505846715  0.7377080696741112  1.0000
  Te  Te2       1.0  0.7377080509163726  0.7377080171426353  0.2622919424478694  1.0000
  Te  Te3       1.0  0.7377080248567154  0.26229199495183914  0.26229189422510646  1.0000
  Te  Te4       1.0  0.2622920612793423  0.7377080189919819  0.7377080243969383  1.0000
  Te  Te5       1.0  0.2622920129050308  0.737708044279044  0.2622919344983309  1.0000
  Te  Te6       1.0  0.7377080955373068  0.26229193689438834  0.7377080569521719  1.0000
