data_image0
_chemical_formula_structural       Zr2HfO6
_chemical_formula_sum              "Zr2 Hf1 O6"
_cell_length_a       5.215179954251569
_cell_length_b       5.215180076166063
_cell_length_c       5.215179985143084
_cell_angle_alpha    60.00000049179858
_cell_angle_beta     59.99999916165139
_cell_angle_gamma    60.00000114831091

_space_group_name_H-M_alt    "P 1"
_space_group_IT_number       1

loop_
  _space_group_symop_operation_xyz
  'x, y, z'

loop_
  _atom_site_type_symbol
  _atom_site_label
  _atom_site_symmetry_multiplicity
  _atom_site_fract_x
  _atom_site_fract_y
  _atom_site_fract_z
  _atom_site_occupancy
  Zr  Zr1       1.0  0.2500000007295124  0.2500004962051111  0.24999960585325529  1.0000
  Zr  Zr2       1.0  0.7500000034019078  0.749999837674002  0.7500001275460264  1.0000
  Hf  Hf1       1.0  2.4557389097411815e-10  2.5832652441862154e-08  0.999999998465763  1.0000
  O   O1        1.0  0.2650367067921698  0.26503685502792046  0.73496322048062  1.0000
  O   O2        1.0  0.7349632799680286  0.7349631124972129  0.2650367392958916  1.0000
  O   O3        1.0  0.7349632335101468  0.2650367900730848  0.2650368252616428  1.0000
  O   O4        1.0  0.2650367987872007  0.7349630341982494  0.7349634268930727  1.0000
  O   O5        1.0  0.2650367891526891  0.7349630523006762  0.26503682626519204  1.0000
  O   O6        1.0  0.7349631704587644  0.26503679075804076  0.734963249585967  1.0000
