data_image0
_chemical_formula_structural       Zr2HfSe6
_chemical_formula_sum              "Zr2 Hf1 Se6"
_cell_length_a       6.639425663890452
_cell_length_b       6.639425781725624
_cell_length_c       6.639425760894833
_cell_angle_alpha    60.0000002019263
_cell_angle_beta     60.00000058187423
_cell_angle_gamma    60.00000124257594

_space_group_name_H-M_alt    "P 1"
_space_group_IT_number       1

loop_
  _space_group_symop_operation_xyz
  'x, y, z'

loop_
  _atom_site_type_symbol
  _atom_site_label
  _atom_site_symmetry_multiplicity
  _atom_site_fract_x
  _atom_site_fract_y
  _atom_site_fract_z
  _atom_site_occupancy
  Zr  Zr1       1.0  0.2500001172708555  0.25000001515518294  0.25000008201451535  1.0000
  Zr  Zr2       1.0  0.7499998250046073  0.7500001284750122  0.749999863974895  1.0000
  Hf  Hf1       1.0  1.442264512111277e-08  3.6893097959962563e-09  0.9999999653393987  1.0000
  Se  Se1       1.0  0.26750548891829323  0.26750536177817963  0.7324945362026745  1.0000
  Se  Se2       1.0  0.7324944814670818  0.7324946453475604  0.2675055392917248  1.0000
  Se  Se3       1.0  0.7324944973301187  0.26750537748240427  0.26750548007745273  1.0000
  Se  Se4       1.0  0.26750551989200694  0.7324944839156071  0.732494584616262  1.0000
  Se  Se5       1.0  0.2675054398406648  0.7324945369202229  0.26750542871725086  1.0000
  Se  Se6       1.0  0.7324945875330084  0.2675054609822438  0.7324945234884492  1.0000
