data_image0
_chemical_formula_structural       Zr2HfS6
_chemical_formula_sum              "Zr2 Hf1 S6"
_cell_length_a       6.2994218864224925
_cell_length_b       6.299421935777501
_cell_length_c       6.29942204250858
_cell_angle_alpha    60.000000363473
_cell_angle_beta     59.999999851790044
_cell_angle_gamma    60.000000945148486

_space_group_name_H-M_alt    "P 1"
_space_group_IT_number       1

loop_
  _space_group_symop_operation_xyz
  'x, y, z'

loop_
  _atom_site_type_symbol
  _atom_site_label
  _atom_site_symmetry_multiplicity
  _atom_site_fract_x
  _atom_site_fract_y
  _atom_site_fract_z
  _atom_site_occupancy
  Zr  Zr1       1.0  0.249999847025911  0.2500002550653271  0.24999999780550455  1.0000
  Zr  Zr2       1.0  0.7500001422154888  0.7499998086407983  0.7499999679319796  1.0000
  Hf  Hf1       1.0  2.5922904903937825e-09  0.9999999922231287  2.005420975374328e-08  1.0000
  S   S1        1.0  0.26851206633846514  0.26851208867239845  0.7314879300961526  1.0000
  S   S2        1.0  0.7314879448262116  0.7314879147629736  0.2685120579899642  1.0000
  S   S3        1.0  0.7314879520953486  0.26851208057023723  0.26851205231812403  1.0000
  S   S4        1.0  0.268512069123992  0.7314878762039064  0.7314879683582997  1.0000
  S   S5        1.0  0.26851199930235525  0.7314878453102813  0.268512142465767  1.0000
  S   S6        1.0  0.731487976405828  0.2685121270176047  0.7314878709651029  1.0000
