data_image0
_chemical_formula_structural       Zr2IrSe6
_chemical_formula_sum              "Zr2 Ir1 Se6"
_cell_length_a       6.657476658143751
_cell_length_b       6.657476663846832
_cell_length_c       6.65747672759306
_cell_angle_alpha    59.99999939004934
_cell_angle_beta     60.000000556468784
_cell_angle_gamma    59.99999886341637

_space_group_name_H-M_alt    "P 1"
_space_group_IT_number       1

loop_
  _space_group_symop_operation_xyz
  'x, y, z'

loop_
  _atom_site_type_symbol
  _atom_site_label
  _atom_site_symmetry_multiplicity
  _atom_site_fract_x
  _atom_site_fract_y
  _atom_site_fract_z
  _atom_site_occupancy
  Zr  Zr1       1.0  0.24999994420234842  0.2500000016303503  0.2499999901110048  1.0000
  Zr  Zr2       1.0  0.750000103669911  0.75000003984446  0.7499998894242669  1.0000
  Ir  Ir1       1.0  0.9999999677459842  2.3915493298194284e-08  0.9999999771319903  1.0000
  Se  Se1       1.0  0.25499055873216186  0.25499053607157  0.7450094406133674  1.0000
  Se  Se2       1.0  0.7450094572378216  0.7450094502136413  0.25499055456723  1.0000
  Se  Se3       1.0  0.7450094992642077  0.25499049571409915  0.2549905741188139  1.0000
  Se  Se4       1.0  0.2549905187739049  0.7450094427401264  0.7450094860011885  1.0000
  Se  Se5       1.0  0.2549904630112516  0.7450094717933957  0.2549906208100671  1.0000
  Se  Se6       1.0  0.7450094841762291  0.25499054392626863  0.7450094691480842  1.0000
