data_image0
_chemical_formula_structural       Zr2IrO6
_chemical_formula_sum              "Zr2 Ir1 O6"
_cell_length_a       5.117505312496192
_cell_length_b       5.117505344083874
_cell_length_c       5.117505345944799
_cell_angle_alpha    59.99999922930571
_cell_angle_beta     59.999999239535924
_cell_angle_gamma    59.99999998660663

_space_group_name_H-M_alt    "P 1"
_space_group_IT_number       1

loop_
  _space_group_symop_operation_xyz
  'x, y, z'

loop_
  _atom_site_type_symbol
  _atom_site_label
  _atom_site_symmetry_multiplicity
  _atom_site_fract_x
  _atom_site_fract_y
  _atom_site_fract_z
  _atom_site_occupancy
  Zr  Zr1       1.0  0.25000002089850365  0.24999994320792948  0.250000143873346  1.0000
  Zr  Zr2       1.0  0.7499999567552993  0.7500001000605786  0.7500000953417246  1.0000
  Ir  Ir1       1.0  0.999999939007455  1.2205554211815845e-07  0.999999891305417  1.0000
  O   O1        1.0  0.2621348211725724  0.26213465888594784  0.7378651995596599  1.0000
  O   O2        1.0  0.7378652125738963  0.7378652431810534  0.2621347500167249  1.0000
  O   O3        1.0  0.737865189032055  0.2621348348950954  0.2621347281334989  1.0000
  O   O4        1.0  0.26213474237581164  0.7378653064964971  0.7378651881232781  1.0000
  O   O5        1.0  0.2621348001766674  0.7378651612283477  0.2621348211541439  1.0000
  O   O6        1.0  0.7378652975929858  0.2621346570750464  0.7378651793280716  1.0000
