data_image0
_chemical_formula_structural       Zr2MoSe6
_chemical_formula_sum              "Zr2 Mo1 Se6"
_cell_length_a       6.605788788169813
_cell_length_b       6.605788683421187
_cell_length_c       6.6057887246826015
_cell_angle_alpha    60.0000010822001
_cell_angle_beta     60.000001356680556
_cell_angle_gamma    60.00000078267238

_space_group_name_H-M_alt    "P 1"
_space_group_IT_number       1

loop_
  _space_group_symop_operation_xyz
  'x, y, z'

loop_
  _atom_site_type_symbol
  _atom_site_label
  _atom_site_symmetry_multiplicity
  _atom_site_fract_x
  _atom_site_fract_y
  _atom_site_fract_z
  _atom_site_occupancy
  Zr  Zr1       1.0  0.24999993479432173  0.2500001486009585  0.249999757979391  1.0000
  Zr  Zr2       1.0  0.7500000604474052  0.7500000342042551  0.7500004340892578  1.0000
  Mo  Mo1       1.0  1.6262291341112354e-08  0.999999972189281  0.9999999527903817  1.0000
  Se  Se1       1.0  0.2614852588325044  0.2614852798523153  0.7385147072996038  1.0000
  Se  Se2       1.0  0.7385146931179606  0.7385147286723914  0.2614851348663246  1.0000
  Se  Se3       1.0  0.7385148006010188  0.2614853511135033  0.26148517515100606  1.0000
  Se  Se4       1.0  0.26148516814191325  0.7385146017897686  0.7385148665744345  1.0000
  Se  Se5       1.0  0.26148538377045943  0.7385147579947651  0.26148517799953985  1.0000
  Se  Se6       1.0  0.7385146760115727  0.26148512630873444  0.7385147964947572  1.0000
