data_image0
_chemical_formula_structural       Zr2MnO6
_chemical_formula_sum              "Zr2 Mn1 O6"
_cell_length_a       4.9987318447613225
_cell_length_b       4.998731734640437
_cell_length_c       4.99873162171974
_cell_angle_alpha    60.00000134825659
_cell_angle_beta     60.00000163815707
_cell_angle_gamma    60.0000001697242

_space_group_name_H-M_alt    "P 1"
_space_group_IT_number       1

loop_
  _space_group_symop_operation_xyz
  'x, y, z'

loop_
  _atom_site_type_symbol
  _atom_site_label
  _atom_site_symmetry_multiplicity
  _atom_site_fract_x
  _atom_site_fract_y
  _atom_site_fract_z
  _atom_site_occupancy
  Zr  Zr1       1.0  0.24999969530687693  0.2500001705792678  0.25000008433083026  1.0000
  Zr  Zr2       1.0  0.7500001070193635  0.7499996590990999  0.7499999227000536  1.0000
  Mn  Mn1       1.0  7.606540236553084e-09  4.900222089901843e-09  0.9999999497354543  1.0000
  O   O1        1.0  0.25512531480575573  0.2551254093660956  0.7448746350404445  1.0000
  O   O2        1.0  0.7448747118893791  0.7448746065207237  0.2551253927591127  1.0000
  O   O3        1.0  0.7448746408172343  0.2551253149004203  0.2551253831335865  1.0000
  O   O4        1.0  0.2551253940449381  0.7448746764852869  0.7448746908426499  1.0000
  O   O5        1.0  0.2551253539822113  0.7448747665529516  0.2551252583379322  1.0000
  O   O6        1.0  0.7448747821429688  0.2551254061409841  0.7448746803542097  1.0000
