data_image0
_chemical_formula_structural       Zr2MnSe6
_chemical_formula_sum              "Zr2 Mn1 Se6"
_cell_length_a       6.524658788508246
_cell_length_b       6.524658736699921
_cell_length_c       6.524658753451759
_cell_angle_alpha    60.00000008184282
_cell_angle_beta     60.0000009141881
_cell_angle_gamma    60.00000010352098

_space_group_name_H-M_alt    "P 1"
_space_group_IT_number       1

loop_
  _space_group_symop_operation_xyz
  'x, y, z'

loop_
  _atom_site_type_symbol
  _atom_site_label
  _atom_site_symmetry_multiplicity
  _atom_site_fract_x
  _atom_site_fract_y
  _atom_site_fract_z
  _atom_site_occupancy
  Zr  Zr1       1.0  0.2499998927614682  0.2500000510764234  0.25000000883233414  1.0000
  Zr  Zr2       1.0  0.7499997720810785  0.75000015322927  0.7500002278875132  1.0000
  Mn  Mn1       1.0  9.259736209875814e-09  9.385509109687634e-09  0.9999999309041364  1.0000
  Se  Se1       1.0  0.2535827266059695  0.25358262144873317  0.7464173195113699  1.0000
  Se  Se2       1.0  0.7464173816798855  0.7464172825206711  0.2535825820396507  1.0000
  Se  Se3       1.0  0.7464173241042151  0.25358266131998003  0.25358265198790525  1.0000
  Se  Se4       1.0  0.2535827009482026  0.7464173383816165  0.7464173582622778  1.0000
  Se  Se5       1.0  0.25358276909670596  0.7464173087877347  0.2535826036359572  1.0000
  Se  Se6       1.0  0.7464174252995457  0.25358256514804056  0.7464173235193323  1.0000
