data_image0
_chemical_formula_structural       Zr2MoS6
_chemical_formula_sum              "Zr2 Mo1 S6"
_cell_length_a       6.2737031770549825
_cell_length_b       6.273703174257646
_cell_length_c       6.273703268004643
_cell_angle_alpha    59.999998285942475
_cell_angle_beta     59.99999830627237
_cell_angle_gamma    59.99999753205131

_space_group_name_H-M_alt    "P 1"
_space_group_IT_number       1

loop_
  _space_group_symop_operation_xyz
  'x, y, z'

loop_
  _atom_site_type_symbol
  _atom_site_label
  _atom_site_symmetry_multiplicity
  _atom_site_fract_x
  _atom_site_fract_y
  _atom_site_fract_z
  _atom_site_occupancy
  Zr  Zr1       1.0  0.24999983415827282  0.2500001830932235  0.2500000052651646  1.0000
  Zr  Zr2       1.0  0.7499996226014469  0.7500000729457659  0.749999604135826  1.0000
  Mo  Mo1       1.0  3.41154037134697e-08  0.999999980478118  0.9999999879213743  1.0000
  S   S1        1.0  0.2634514919394546  0.2634512426662254  0.736548640920827  1.0000
  S   S2        1.0  0.7365487088518445  0.7365486034132341  0.26345161117322  1.0000
  S   S3        1.0  0.7365486769388688  0.26345134904041245  0.2634514426743624  1.0000
  S   S4        1.0  0.26345154220036854  0.7365485966006432  0.7365486739550815  1.0000
  S   S5        1.0  0.26345144913288787  0.7365485287407998  0.2634513439726819  1.0000
  S   S6        1.0  0.7365486491622422  0.2634514481352693  0.7365486740053699  1.0000
