data_image0
_chemical_formula_structural       Zr2NbO6
_chemical_formula_sum              "Zr2 Nb1 O6"
_cell_length_a       5.14426621098032
_cell_length_b       5.144266160020103
_cell_length_c       5.14426631719566
_cell_angle_alpha    59.99999698463017
_cell_angle_beta     59.999995345193135
_cell_angle_gamma    59.99999709604458

_space_group_name_H-M_alt    "P 1"
_space_group_IT_number       1

loop_
  _space_group_symop_operation_xyz
  'x, y, z'

loop_
  _atom_site_type_symbol
  _atom_site_label
  _atom_site_symmetry_multiplicity
  _atom_site_fract_x
  _atom_site_fract_y
  _atom_site_fract_z
  _atom_site_occupancy
  Zr  Zr1       1.0  0.24999968600844769  0.24999992820662634  0.2499999797064364  1.0000
  Zr  Zr2       1.0  0.750000553108501  0.7499999727027601  0.750000061716495  1.0000
  Nb  Nb1       1.0  4.139927088479014e-08  1.0475502767603879e-07  3.098734726300348e-07  1.0000
  O   O1        1.0  0.2652184361306539  0.26521851373656297  0.7347815622301725  1.0000
  O   O2        1.0  0.7347815451915417  0.7347814871662652  0.2652183131605339  1.0000
  O   O3        1.0  0.7347817771176707  0.2652183250348296  0.2652184841131391  1.0000
  O   O4        1.0  0.26521837972199536  0.7347813782684782  0.7347814523185914  1.0000
  O   O5        1.0  0.26521835372534286  0.7347816271140822  0.26521857313351693  1.0000
  O   O6        1.0  0.734781200158856  0.2652186594842872  0.7347813089793364  1.0000
