data_image0
_chemical_formula_structural       Zr2NbTe6
_chemical_formula_sum              "Zr2 Nb1 Te6"
_cell_length_a       7.167466447095021
_cell_length_b       7.167466512079135
_cell_length_c       7.167466448960257
_cell_angle_alpha    59.99999992687226
_cell_angle_beta     60.000000665407235
_cell_angle_gamma    59.99999978497047

_space_group_name_H-M_alt    "P 1"
_space_group_IT_number       1

loop_
  _space_group_symop_operation_xyz
  'x, y, z'

loop_
  _atom_site_type_symbol
  _atom_site_label
  _atom_site_symmetry_multiplicity
  _atom_site_fract_x
  _atom_site_fract_y
  _atom_site_fract_z
  _atom_site_occupancy
  Zr  Zr1       1.0  0.24999988156923836  0.2500000599987367  0.2500000068527654  1.0000
  Zr  Zr2       1.0  0.7499999719619534  0.7499999715280217  0.7500000141826128  1.0000
  Nb  Nb1       1.0  4.3042724479317266e-08  0.9999999675336427  1.2849327484785639e-08  1.0000
  Te  Te1       1.0  0.26371813073992706  0.2637180988518455  0.7362818789902162  1.0000
  Te  Te2       1.0  0.7362818966206163  0.7362818848297542  0.2637181111425087  1.0000
  Te  Te3       1.0  0.7362819200440879  0.2637181305426466  0.2637180989079401  1.0000
  Te  Te4       1.0  0.2637181197160711  0.736281878770287  0.736281902903559  1.0000
  Te  Te5       1.0  0.26371810559289244  0.7362818921787403  0.26371809230770166  1.0000
  Te  Te6       1.0  0.7362819309452056  0.26371811713419374  0.7362818790253856  1.0000
