data_image0
_chemical_formula_structural       Zr2NiSe6
_chemical_formula_sum              "Zr2 Ni1 Se6"
_cell_length_a       6.4468634335687005
_cell_length_b       6.446863437896302
_cell_length_c       6.446863722946453
_cell_angle_alpha    59.999999303018434
_cell_angle_beta     59.999997912701204
_cell_angle_gamma    59.99999904747241

_space_group_name_H-M_alt    "P 1"
_space_group_IT_number       1

loop_
  _space_group_symop_operation_xyz
  'x, y, z'

loop_
  _atom_site_type_symbol
  _atom_site_label
  _atom_site_symmetry_multiplicity
  _atom_site_fract_x
  _atom_site_fract_y
  _atom_site_fract_z
  _atom_site_occupancy
  Zr  Zr1       1.0  0.24999995354738622  0.24999994002812537  0.2500000874171679  1.0000
  Zr  Zr2       1.0  0.7500001379682872  0.7500001487416593  0.7499997824296298  1.0000
  Ni  Ni1       1.0  0.9999999745085844  0.9999999905012346  1.4392806930219776e-08  1.0000
  Se  Se1       1.0  0.2551265297724385  0.2551264045293723  0.7448735171952834  1.0000
  Se  Se2       1.0  0.7448735168415315  0.7448735341599186  0.25512652925084556  1.0000
  Se  Se3       1.0  0.7448735335999704  0.25512642695926596  0.2551264807195994  1.0000
  Se  Se4       1.0  0.25512640339340215  0.7448735934194076  0.7448734928281954  1.0000
  Se  Se5       1.0  0.25512639259708614  0.7448735272615693  0.25512655266788525  1.0000
  Se  Se6       1.0  0.7448735682425273  0.2551264323250062  0.7448735463816238  1.0000
