data_image0
_chemical_formula_structural       Zr2NiTe6
_chemical_formula_sum              "Zr2 Ni1 Te6"
_cell_length_a       6.884536853704812
_cell_length_b       6.884536948652594
_cell_length_c       6.884536736148706
_cell_angle_alpha    60.00000088928002
_cell_angle_beta     60.000000605665825
_cell_angle_gamma    60.000000320989386

_space_group_name_H-M_alt    "P 1"
_space_group_IT_number       1

loop_
  _space_group_symop_operation_xyz
  'x, y, z'

loop_
  _atom_site_type_symbol
  _atom_site_label
  _atom_site_symmetry_multiplicity
  _atom_site_fract_x
  _atom_site_fract_y
  _atom_site_fract_z
  _atom_site_occupancy
  Zr  Zr1       1.0  0.25000004592360553  0.24999991729182122  0.25000010129435823  1.0000
  Zr  Zr2       1.0  0.7499999891155744  0.7500002179680368  0.7499999316424165  1.0000
  Ni  Ni1       1.0  1.4502146942885273e-08  1.7789792174151003e-09  0.9999999860493147  1.0000
  Te  Te1       1.0  0.2544624550708517  0.2544623312031785  0.7455375767443109  1.0000
  Te  Te2       1.0  0.7455375726693785  0.7455376297167101  0.25446235527788935  1.0000
  Te  Te3       1.0  0.745537606531237  0.2544623486564686  0.25446241819316345  1.0000
  Te  Te4       1.0  0.25446234187010985  0.7455376389481095  0.745537605520009  1.0000
  Te  Te5       1.0  0.2544623630163995  0.7455376201887292  0.2544624079014605  1.0000
  Te  Te6       1.0  0.7455376091046715  0.2544622962566775  0.7455376221010689  1.0000
