data_image0
_chemical_formula_structural       Zr2NiS6
_chemical_formula_sum              "Zr2 Ni1 S6"
_cell_length_a       6.07489763263153
_cell_length_b       6.0748975989858724
_cell_length_c       6.074897516974583
_cell_angle_alpha    60.00000207988281
_cell_angle_beta     60.000001434145815
_cell_angle_gamma    60.00000097359407

_space_group_name_H-M_alt    "P 1"
_space_group_IT_number       1

loop_
  _space_group_symop_operation_xyz
  'x, y, z'

loop_
  _atom_site_type_symbol
  _atom_site_label
  _atom_site_symmetry_multiplicity
  _atom_site_fract_x
  _atom_site_fract_y
  _atom_site_fract_z
  _atom_site_occupancy
  Zr  Zr1       1.0  0.25000001190468796  0.25000011904414543  0.24999997065650184  1.0000
  Zr  Zr2       1.0  0.7500001034964617  0.7499999256924124  0.7500001793964655  1.0000
  Ni  Ni1       1.0  0.9999999921663031  1.2096449800551527e-08  2.9144871466572266e-08  1.0000
  S   S1        1.0  0.2550396501215097  0.2550396849619143  0.7449603080246816  1.0000
  S   S2        1.0  0.7449603520403301  0.7449603174370661  0.25503958894694906  1.0000
  S   S3        1.0  0.7449603488777035  0.2550396658711372  0.25503960009527993  1.0000
  S   S4        1.0  0.25503962625166554  0.7449602921741965  0.7449603638456563  1.0000
  S   S5        1.0  0.255039633850757  0.7449603087850426  0.2550396145292699  1.0000
  S   S6        1.0  0.7449602632315919  0.2550396553085156  0.7449603673037626  1.0000
