data_image0
_chemical_formula_structural       Zr2NiO6
_chemical_formula_sum              "Zr2 Ni1 O6"
_cell_length_a       4.933134668171271
_cell_length_b       4.933134830767559
_cell_length_c       4.933134653168356
_cell_angle_alpha    59.99999949669769
_cell_angle_beta     59.99999970512618
_cell_angle_gamma    59.99999967319986

_space_group_name_H-M_alt    "P 1"
_space_group_IT_number       1

loop_
  _space_group_symop_operation_xyz
  'x, y, z'

loop_
  _atom_site_type_symbol
  _atom_site_label
  _atom_site_symmetry_multiplicity
  _atom_site_fract_x
  _atom_site_fract_y
  _atom_site_fract_z
  _atom_site_occupancy
  Zr  Zr1       1.0  0.2499998032195847  0.24999994800288225  0.25000023870528304  1.0000
  Zr  Zr2       1.0  0.749999806203013  0.7500000798642793  0.7500002053134673  1.0000
  Ni  Ni1       1.0  1.789806412404569e-08  2.482690851768288e-09  0.9999999837282965  1.0000
  O   O1        1.0  0.25351351107006453  0.2535131229621911  0.7464865992806793  1.0000
  O   O2        1.0  0.7464866673585464  0.7464867708396684  0.2535131569785052  1.0000
  O   O3        1.0  0.7464868292585999  0.2535132979243335  0.2535132832605801  1.0000
  O   O4        1.0  0.2535132454691214  0.7464866331178861  0.7464867150210613  1.0000
  O   O5        1.0  0.2535133014789387  0.746486723778047  0.2535132766800933  1.0000
  O   O6        1.0  0.7464868528528832  0.2535134108448231  0.7464865435212139  1.0000
