data_image0
_chemical_formula_structural       Zr2OsO6
_chemical_formula_sum              "Zr2 Os1 O6"
_cell_length_a       5.103089949258538
_cell_length_b       5.103089960936851
_cell_length_c       5.103089934659188
_cell_angle_alpha    59.999999530447866
_cell_angle_beta     59.99999974634945
_cell_angle_gamma    60.00000018534715

_space_group_name_H-M_alt    "P 1"
_space_group_IT_number       1

loop_
  _space_group_symop_operation_xyz
  'x, y, z'

loop_
  _atom_site_type_symbol
  _atom_site_label
  _atom_site_symmetry_multiplicity
  _atom_site_fract_x
  _atom_site_fract_y
  _atom_site_fract_z
  _atom_site_occupancy
  Zr  Zr1       1.0  0.2500000049117109  0.25000025189692904  0.24999980362562935  1.0000
  Zr  Zr2       1.0  0.7500002227161767  0.7499999348885852  0.7500000014290431  1.0000
  Os  Os1       1.0  0.9999999953607954  0.9999999663999097  3.871561810175525e-08  1.0000
  O   O1        1.0  0.2619285066556116  0.26192863857552856  0.7380714010001259  1.0000
  O   O2        1.0  0.7380715102898058  0.7380712842092776  0.26192847483038817  1.0000
  O   O3        1.0  0.7380713477300472  0.26192856548052673  0.26192865006382277  1.0000
  O   O4        1.0  0.26192857354076976  0.7380713117041553  0.7380715119597299  1.0000
  O   O5        1.0  0.26192849673984775  0.7380714249317271  0.2619286545819847  1.0000
  O   O6        1.0  0.7380713646680678  0.2619286250534183  0.7380714529323834  1.0000
