data_image0
_chemical_formula_structural       Zr2PO6
_chemical_formula_sum              "Zr2 P1 O6"
_cell_length_a       4.860739209826088
_cell_length_b       4.8607391552082335
_cell_length_c       4.860739161825986
_cell_angle_alpha    60.00000046707094
_cell_angle_beta     59.99999832089316
_cell_angle_gamma    59.999997573914804

_space_group_name_H-M_alt    "P 1"
_space_group_IT_number       1

loop_
  _space_group_symop_operation_xyz
  'x, y, z'

loop_
  _atom_site_type_symbol
  _atom_site_label
  _atom_site_symmetry_multiplicity
  _atom_site_fract_x
  _atom_site_fract_y
  _atom_site_fract_z
  _atom_site_occupancy
  Zr  Zr1       1.0  0.2500000276120937  0.24999999720283705  0.2500000257286206  1.0000
  Zr  Zr2       1.0  0.7499999721686846  0.7499999815298405  0.7500000182355815  1.0000
  P   P1        1.0  5.446917062961686e-09  5.039336595677283e-09  5.441858099713382e-08  1.0000
  O   O1        1.0  0.24412395622320562  0.24412402747852865  0.7558759926739134  1.0000
  O   O2        1.0  0.7558760808708404  0.7558759462148108  0.24412394051751074  1.0000
  O   O3        1.0  0.7558760719435841  0.24412401384569113  0.2441239634507824  1.0000
  O   O4        1.0  0.24412393616191413  0.7558760681933724  0.7558759917810626  1.0000
  O   O5        1.0  0.24412396517859897  0.7558759907930283  0.24412403192576798  1.0000
  O   O6        1.0  0.7558760128145071  0.24412396778230522  0.7558759610054331  1.0000
