data_image0
_chemical_formula_structural       Zr2PtS6
_chemical_formula_sum              "Zr2 Pt1 S6"
_cell_length_a       6.311336780336019
_cell_length_b       6.311336703146515
_cell_length_c       6.311336584202872
_cell_angle_alpha    59.99999958856244
_cell_angle_beta     59.99999956421464
_cell_angle_gamma    59.99999938863456

_space_group_name_H-M_alt    "P 1"
_space_group_IT_number       1

loop_
  _space_group_symop_operation_xyz
  'x, y, z'

loop_
  _atom_site_type_symbol
  _atom_site_label
  _atom_site_symmetry_multiplicity
  _atom_site_fract_x
  _atom_site_fract_y
  _atom_site_fract_z
  _atom_site_occupancy
  Zr  Zr1       1.0  0.24999998069777038  0.2500000970705375  0.24999991961965376  1.0000
  Zr  Zr2       1.0  0.7499999577923264  0.7499997556204929  0.750000649416291  1.0000
  Pt  Pt1       1.0  1.496620406061965e-09  1.7464927729632157e-08  0.9999999825969736  1.0000
  S   S1        1.0  0.25703329942183445  0.257033391106056  0.7429666349563933  1.0000
  S   S2        1.0  0.7429666732179863  0.7429665896611151  0.25703313996392185  1.0000
  S   S3        1.0  0.7429666558784312  0.2570335063846518  0.2570331909329155  1.0000
  S   S4        1.0  0.25703325240941594  0.7429666509723429  0.7429666403644546  1.0000
  S   S5        1.0  0.2570335080214085  0.7429666850339632  0.25703315651410696  1.0000
  S   S6        1.0  0.7429666546712816  0.25703330737649166  0.7429666839254251  1.0000
