data_image0
_chemical_formula_structural       Zr2PdS6
_chemical_formula_sum              "Zr2 Pd1 S6"
_cell_length_a       6.2669927323812935
_cell_length_b       6.266992895809227
_cell_length_c       6.266992769092264
_cell_angle_alpha    60.000000428829715
_cell_angle_beta     60.00000059542246
_cell_angle_gamma    60.00000063088789

_space_group_name_H-M_alt    "P 1"
_space_group_IT_number       1

loop_
  _space_group_symop_operation_xyz
  'x, y, z'

loop_
  _atom_site_type_symbol
  _atom_site_label
  _atom_site_symmetry_multiplicity
  _atom_site_fract_x
  _atom_site_fract_y
  _atom_site_fract_z
  _atom_site_occupancy
  Zr  Zr1       1.0  0.25000011714783366  0.25000013422849804  0.24999999429862596  1.0000
  Zr  Zr2       1.0  0.7499997911447261  0.7499997675450287  0.7500001641478062  1.0000
  Pd  Pd1       1.0  9.733040308378747e-09  3.713128873746415e-08  8.481068396069625e-09  1.0000
  S   S1        1.0  0.26311981205553037  0.2631197961237289  0.7368801843819492  1.0000
  S   S2        1.0  0.7368801811585578  0.7368801935923244  0.26311983816694473  1.0000
  S   S3        1.0  0.7368800635759677  0.2631199238901094  0.26311970191086453  1.0000
  S   S4        1.0  0.26311987115988744  0.7368801694026977  0.736880227879656  1.0000
  S   S5        1.0  0.2631199286357345  0.7368801017506581  0.2631196847439115  1.0000
  S   S6        1.0  0.7368802139335403  0.2631198821025604  0.7368801990410184  1.0000
