data_image0
_chemical_formula_structural       Zr2PtSe6
_chemical_formula_sum              "Zr2 Pt1 Se6"
_cell_length_a       6.616759686247024
_cell_length_b       6.616759531577582
_cell_length_c       6.6167593502860385
_cell_angle_alpha    60.00000074300706
_cell_angle_beta     60.00000101136703
_cell_angle_gamma    60.000000926551294

_space_group_name_H-M_alt    "P 1"
_space_group_IT_number       1

loop_
  _space_group_symop_operation_xyz
  'x, y, z'

loop_
  _atom_site_type_symbol
  _atom_site_label
  _atom_site_symmetry_multiplicity
  _atom_site_fract_x
  _atom_site_fract_y
  _atom_site_fract_z
  _atom_site_occupancy
  Zr  Zr1       1.0  0.25000042257343813  0.2500000407978448  0.24999953473491793  1.0000
  Zr  Zr2       1.0  0.7499997580206189  0.7500000705662547  0.7499999426430574  1.0000
  Pt  Pt1       1.0  6.169914128412284e-10  0.9999999981490262  0.9999999779472836  1.0000
  Se  Se1       1.0  0.2560060763263062  0.25600598661913604  0.743994004658001  1.0000
  Se  Se2       1.0  0.743993935170121  0.7439939933258217  0.2560061610060888  1.0000
  Se  Se3       1.0  0.7439938747345469  0.25600598332775043  0.2560061108185007  1.0000
  Se  Se4       1.0  0.2560060831775707  0.7439938170727467  0.7439941034008518  1.0000
  Se  Se5       1.0  0.2560061011296303  0.7439940296061125  0.25600601110402144  1.0000
  Se  Se6       1.0  0.7439937579580271  0.2560060725031157  0.7439941530578665  1.0000
