data_image0
_chemical_formula_structural       Zr2PS6
_chemical_formula_sum              "Zr2 P1 S6"
_cell_length_a       6.060237015989369
_cell_length_b       6.060237013578841
_cell_length_c       6.060236715685215
_cell_angle_alpha    59.99999876112733
_cell_angle_beta     59.99999844922784
_cell_angle_gamma    59.999998172337634

_space_group_name_H-M_alt    "P 1"
_space_group_IT_number       1

loop_
  _space_group_symop_operation_xyz
  'x, y, z'

loop_
  _atom_site_type_symbol
  _atom_site_label
  _atom_site_symmetry_multiplicity
  _atom_site_fract_x
  _atom_site_fract_y
  _atom_site_fract_z
  _atom_site_occupancy
  Zr  Zr1       1.0  0.24999980839766092  0.25000068012554855  0.25000007302441585  1.0000
  Zr  Zr2       1.0  0.7500000819101336  0.7499998415807463  0.7499997112847194  1.0000
  P   P1        1.0  0.9999999766930461  0.9999999898952393  2.9906662570232456e-08  1.0000
  S   S1        1.0  0.2531028991206151  0.25310271620735025  0.7468969554022671  1.0000
  S   S2        1.0  0.7468973446753375  0.7468970537047489  0.253102996707984  1.0000
  S   S3        1.0  0.7468971507417308  0.2531029483795701  0.2531026693238763  1.0000
  S   S4        1.0  0.2531028443717315  0.746896973103939  0.7468974534493592  1.0000
  S   S5        1.0  0.253102682453721  0.7468970377545803  0.2531029094964684  1.0000
  S   S6        1.0  0.746897205229176  0.253102788744182  0.7468972088779918  1.0000
