data_image0
_chemical_formula_structural       Zr2PbTe6
_chemical_formula_sum              "Zr2 Pb1 Te6"
_cell_length_a       7.309043250664159
_cell_length_b       7.309043304319187
_cell_length_c       7.309043312226399
_cell_angle_alpha    60.00000039289844
_cell_angle_beta     60.00000004450072
_cell_angle_gamma    60.000000673026356

_space_group_name_H-M_alt    "P 1"
_space_group_IT_number       1

loop_
  _space_group_symop_operation_xyz
  'x, y, z'

loop_
  _atom_site_type_symbol
  _atom_site_label
  _atom_site_symmetry_multiplicity
  _atom_site_fract_x
  _atom_site_fract_y
  _atom_site_fract_z
  _atom_site_occupancy
  Zr  Zr1       1.0  0.24999985149381904  0.2500000619809634  0.25000008352354286  1.0000
  Zr  Zr2       1.0  0.7500001564467249  0.7499999345943621  0.7500000779985956  1.0000
  Pb  Pb1       1.0  0.9999999802918894  1.1729598222846926e-08  6.00841488066047e-08  1.0000
  Te  Te1       1.0  0.27653311508974326  0.2765332476004833  0.7234668130806408  1.0000
  Te  Te2       1.0  0.7234668992659306  0.7234667439478707  0.27653309737265386  1.0000
  Te  Te3       1.0  0.7234668515058621  0.2765331681176845  0.27653312003943054  1.0000
  Te  Te4       1.0  0.276533140444772  0.7234668385115812  0.7234667886032556  1.0000
  Te  Te5       1.0  0.2765331436331691  0.7234668151017924  0.27653319735799686  1.0000
  Te  Te6       1.0  0.7234668697970649  0.2765331697439344  0.7234667606907109  1.0000
