data_image0
_chemical_formula_structural       Zr2PSe6
_chemical_formula_sum              "Zr2 P1 Se6"
_cell_length_a       6.484674404812087
_cell_length_b       6.484674488438303
_cell_length_c       6.484674495770328
_cell_angle_alpha    59.99999964849718
_cell_angle_beta     60.000000341737405
_cell_angle_gamma    59.999999970972155

_space_group_name_H-M_alt    "P 1"
_space_group_IT_number       1

loop_
  _space_group_symop_operation_xyz
  'x, y, z'

loop_
  _atom_site_type_symbol
  _atom_site_label
  _atom_site_symmetry_multiplicity
  _atom_site_fract_x
  _atom_site_fract_y
  _atom_site_fract_z
  _atom_site_occupancy
  Zr  Zr1       1.0  0.25000025129337544  0.25000013181600744  0.249999578385702  1.0000
  Zr  Zr2       1.0  0.7499999481668832  0.7499998798394826  0.7500003519184122  1.0000
  P   P1        1.0  0.9999999805207468  0.999999994333972  2.9535712387809126e-08  1.0000
  Se  Se1       1.0  0.2518768406809033  0.2518769133575253  0.748123121484702  1.0000
  Se  Se2       1.0  0.7481231649928424  0.7481231134073736  0.25187674857451064  1.0000
  Se  Se3       1.0  0.7481231024775609  0.2518769482977133  0.251876801867821  1.0000
  Se  Se4       1.0  0.25187687443716505  0.748122999142795  0.7481232132168462  1.0000
  Se  Se5       1.0  0.2518769010771809  0.748123142182716  0.251876873904281  1.0000
  Se  Se6       1.0  0.7481229427724667  0.2518768732501262  0.7481232739530919  1.0000
