data_image0
_chemical_formula_structural       Zr2PdO6
_chemical_formula_sum              "Zr2 Pd1 O6"
_cell_length_a       5.1580921103917055
_cell_length_b       5.158092326900871
_cell_length_c       5.158092264990157
_cell_angle_alpha    59.99999996585728
_cell_angle_beta     59.99999870127621
_cell_angle_gamma    59.99999996331742

_space_group_name_H-M_alt    "P 1"
_space_group_IT_number       1

loop_
  _space_group_symop_operation_xyz
  'x, y, z'

loop_
  _atom_site_type_symbol
  _atom_site_label
  _atom_site_symmetry_multiplicity
  _atom_site_fract_x
  _atom_site_fract_y
  _atom_site_fract_z
  _atom_site_occupancy
  Zr  Zr1       1.0  0.24999951102361004  0.25000034051442055  0.25000009561648173  1.0000
  Zr  Zr2       1.0  0.7500003005684258  0.7499993523299339  0.7500002338299099  1.0000
  Pd  Pd1       1.0  4.0679237620057865e-08  1.8995314987840836e-08  0.9999999488370096  1.0000
  O   O1        1.0  0.2590497904393394  0.25904983494988965  0.7409501461182157  1.0000
  O   O2        1.0  0.7409502074041081  0.7409502259286951  0.25904976466016083  1.0000
  O   O3        1.0  0.7409503168860999  0.2590500705720122  0.2590495257467158  1.0000
  O   O4        1.0  0.2590497284882386  0.7409500021786443  0.7409503592075819  1.0000
  O   O5        1.0  0.2590497332690475  0.7409501131977451  0.2590499043583014  1.0000
  O   O6        1.0  0.7409504031864171  0.25905003553417105  0.7409500017546713  1.0000
