data_image0
_chemical_formula_structural       Zr2ReO6
_chemical_formula_sum              "Zr2 Re1 O6"
_cell_length_a       5.096940775448113
_cell_length_b       5.096940942247912
_cell_length_c       5.096940750122058
_cell_angle_alpha    59.99999910271018
_cell_angle_beta     59.99999969438903
_cell_angle_gamma    59.99999976669268

_space_group_name_H-M_alt    "P 1"
_space_group_IT_number       1

loop_
  _space_group_symop_operation_xyz
  'x, y, z'

loop_
  _atom_site_type_symbol
  _atom_site_label
  _atom_site_symmetry_multiplicity
  _atom_site_fract_x
  _atom_site_fract_y
  _atom_site_fract_z
  _atom_site_occupancy
  Zr  Zr1       1.0  0.25000016392736235  0.2500002195643233  0.24999992003968924  1.0000
  Zr  Zr2       1.0  0.7500004728889644  0.7500001444719716  0.7500001738232267  1.0000
  Re  Re1       1.0  6.652339725880044e-08  0.9999999567477665  0.9999999903263798  1.0000
  O   O1        1.0  0.2622887023780403  0.2622890303595051  0.7377110303272486  1.0000
  O   O2        1.0  0.7377111654167434  0.7377110309111786  0.2622887538239741  1.0000
  O   O3        1.0  0.7377110750019217  0.262288923699844  0.2622887823831145  1.0000
  O   O4        1.0  0.2622885816244773  0.7377110438576675  0.7377111973720352  1.0000
  O   O5        1.0  0.2622887978383737  0.7377109728709021  0.26228894726072877  1.0000
  O   O6        1.0  0.7377109534631678  0.2622886630861525  0.7377112313974924  1.0000
