data_image0
_chemical_formula_structural       Zr2RuO6
_chemical_formula_sum              "Zr2 Ru1 O6"
_cell_length_a       5.072096938925628
_cell_length_b       5.072097010940756
_cell_length_c       5.072097033542022
_cell_angle_alpha    59.99999909938207
_cell_angle_beta     60.000000148872246
_cell_angle_gamma    60.00000032806294

_space_group_name_H-M_alt    "P 1"
_space_group_IT_number       1

loop_
  _space_group_symop_operation_xyz
  'x, y, z'

loop_
  _atom_site_type_symbol
  _atom_site_label
  _atom_site_symmetry_multiplicity
  _atom_site_fract_x
  _atom_site_fract_y
  _atom_site_fract_z
  _atom_site_occupancy
  Zr  Zr1       1.0  0.24999993910399648  0.2500000078284026  0.2499999424169248  1.0000
  Zr  Zr2       1.0  0.7499998013048899  0.7500001466334604  0.7499998505714706  1.0000
  Ru  Ru1       1.0  5.8133539255214076e-08  0.9999999758532838  0.9999999987791579  1.0000
  O   O1        1.0  0.26183605309299757  0.2618358146325351  0.7381640970092419  1.0000
  O   O2        1.0  0.7381640416843448  0.738164062142087  0.26183607166848344  1.0000
  O   O3        1.0  0.7381641997362589  0.26183586844986845  0.26183604841081154  1.0000
  O   O4        1.0  0.2618358999611361  0.7381640686915454  0.7381640067890756  1.0000
  O   O5        1.0  0.2618359964102835  0.7381640210146118  0.2618359027106859  1.0000
  O   O6        1.0  0.738163997688724  0.2618360416897272  0.7381641011039378  1.0000
