data_image0
_chemical_formula_structural       Zr2RuS6
_chemical_formula_sum              "Zr2 Ru1 S6"
_cell_length_a       6.235931431000313
_cell_length_b       6.235931597133988
_cell_length_c       6.235931357106021
_cell_angle_alpha    60.00000069437026
_cell_angle_beta     60.00000123695767
_cell_angle_gamma    60.00000236554856

_space_group_name_H-M_alt    "P 1"
_space_group_IT_number       1

loop_
  _space_group_symop_operation_xyz
  'x, y, z'

loop_
  _atom_site_type_symbol
  _atom_site_label
  _atom_site_symmetry_multiplicity
  _atom_site_fract_x
  _atom_site_fract_y
  _atom_site_fract_z
  _atom_site_occupancy
  Zr  Zr1       1.0  0.24999973337886042  0.2500000410661965  0.2500001904854734  1.0000
  Zr  Zr2       1.0  0.7500000459124238  0.7499999523295059  0.7499998523439386  1.0000
  Ru  Ru1       1.0  0.9999999647986398  3.338821413403723e-08  3.618598597932227e-08  1.0000
  S   S1        1.0  0.26250520581589626  0.26250515827387844  0.7374948333795245  1.0000
  S   S2        1.0  0.7374948583563259  0.7374947526332959  0.26250522531719267  1.0000
  S   S3        1.0  0.7374948994457156  0.2625051719040951  0.2625052021013523  1.0000
  S   S4        1.0  0.26250519969991803  0.7374949118361929  0.7374947575029308  1.0000
  S   S5        1.0  0.26250514561417954  0.7374947730970539  0.2625051867143808  1.0000
  S   S6        1.0  0.7374949314813217  0.26250520458655197  0.7374947022400953  1.0000
