data_image0
_chemical_formula_structural       Zr2RuSe6
_chemical_formula_sum              "Zr2 Ru1 Se6"
_cell_length_a       6.607356164845735
_cell_length_b       6.607356277569169
_cell_length_c       6.607356150291591
_cell_angle_alpha    60.000000206708656
_cell_angle_beta     59.99999907472813
_cell_angle_gamma    59.999999751385296

_space_group_name_H-M_alt    "P 1"
_space_group_IT_number       1

loop_
  _space_group_symop_operation_xyz
  'x, y, z'

loop_
  _atom_site_type_symbol
  _atom_site_label
  _atom_site_symmetry_multiplicity
  _atom_site_fract_x
  _atom_site_fract_y
  _atom_site_fract_z
  _atom_site_occupancy
  Zr  Zr1       1.0  0.24999995921119  0.24999995034322456  0.25000005233900513  1.0000
  Zr  Zr2       1.0  0.749999890112036  0.7499999603925476  0.7500000098288596  1.0000
  Ru  Ru1       1.0  1.8517892177990126e-08  0.9999999759030954  2.700494061071648e-08  1.0000
  Se  Se1       1.0  0.2563482269039803  0.25634822361486626  0.7436517643613377  1.0000
  Se  Se2       1.0  0.7436518076101183  0.7436517816549145  0.25634820032109495  1.0000
  Se  Se3       1.0  0.7436518118983724  0.25634820640488204  0.25634821149083176  1.0000
  Se  Se4       1.0  0.2563483246821277  0.7436518229618025  0.7436517309734931  1.0000
  Se  Se5       1.0  0.25634819402651476  0.7436518049659573  0.2563482262636196  1.0000
  Se  Se6       1.0  0.7436517621091168  0.2563482781553613  0.743651768951571  1.0000
