data_image0
_chemical_formula_structural       Zr2ReSe6
_chemical_formula_sum              "Zr2 Re1 Se6"
_cell_length_a       6.651998196198925
_cell_length_b       6.651998089499875
_cell_length_c       6.651998060213944
_cell_angle_alpha    60.000000504695336
_cell_angle_beta     59.99999957288938
_cell_angle_gamma    59.99999990233179

_space_group_name_H-M_alt    "P 1"
_space_group_IT_number       1

loop_
  _space_group_symop_operation_xyz
  'x, y, z'

loop_
  _atom_site_type_symbol
  _atom_site_label
  _atom_site_symmetry_multiplicity
  _atom_site_fract_x
  _atom_site_fract_y
  _atom_site_fract_z
  _atom_site_occupancy
  Zr  Zr1       1.0  0.24999999708941104  0.2499999157402361  0.24999993242138752  1.0000
  Zr  Zr2       1.0  0.7499998563545075  0.7500001467542554  0.7500002347078776  1.0000
  Re  Re1       1.0  0.999999989987905  9.20584216231478e-09  2.1449434571662998e-08  1.0000
  Se  Se1       1.0  0.2579800267551993  0.25797990088016376  0.7420200482287932  1.0000
  Se  Se2       1.0  0.7420200461996536  0.7420200290502014  0.25797987699044733  1.0000
  Se  Se3       1.0  0.7420200927134004  0.25797994484097353  0.25797995473713237  1.0000
  Se  Se4       1.0  0.25797996642365584  0.7420200421656125  0.7420199894422048  1.0000
  Se  Se5       1.0  0.25798000874558913  0.7420200823653251  0.25797993631516597  1.0000
  Se  Se6       1.0  0.7420200197414599  0.2579799340999549  0.7420199949300584  1.0000
