data_image0
_chemical_formula_structural       Zr2ReTe6
_chemical_formula_sum              "Zr2 Re1 Te6"
_cell_length_a       7.089788713906847
_cell_length_b       7.089788730895415
_cell_length_c       7.089788721360561
_cell_angle_alpha    59.99999921061776
_cell_angle_beta     60.00000012875269
_cell_angle_gamma    60.00000026601931

_space_group_name_H-M_alt    "P 1"
_space_group_IT_number       1

loop_
  _space_group_symop_operation_xyz
  'x, y, z'

loop_
  _atom_site_type_symbol
  _atom_site_label
  _atom_site_symmetry_multiplicity
  _atom_site_fract_x
  _atom_site_fract_y
  _atom_site_fract_z
  _atom_site_occupancy
  Zr  Zr1       1.0  0.24999997722795309  0.2500000147857638  0.2500000237878546  1.0000
  Zr  Zr2       1.0  0.7500000268389387  0.7500000080802706  0.7499999502433823  1.0000
  Re  Re1       1.0  3.785485106828131e-08  0.9999999792702731  0.9999999999003137  1.0000
  Te  Te1       1.0  0.2592853776215904  0.25928539355069136  0.7407146044455147  1.0000
  Te  Te2       1.0  0.7407146318253254  0.740714603403184  0.2592853911356239  1.0000
  Te  Te3       1.0  0.7407146120947705  0.25928535433297395  0.25928542379504016  1.0000
  Te  Te4       1.0  0.2592853830891989  0.7407146218911741  0.7407146189024999  1.0000
  Te  Te5       1.0  0.25928532788731895  0.7407146336495062  0.259285390170533  1.0000
  Te  Te6       1.0  0.7407146197515576  0.25928538748905056  0.740714607296533  1.0000
