data_image0
_chemical_formula_structural       Zr2RhS6
_chemical_formula_sum              "Zr2 Rh1 S6"
_cell_length_a       6.307940809370391
_cell_length_b       6.307940843402665
_cell_length_c       6.307940918553216
_cell_angle_alpha    59.999998760722896
_cell_angle_beta     59.99999760905621
_cell_angle_gamma    59.99999967731536

_space_group_name_H-M_alt    "P 1"
_space_group_IT_number       1

loop_
  _space_group_symop_operation_xyz
  'x, y, z'

loop_
  _atom_site_type_symbol
  _atom_site_label
  _atom_site_symmetry_multiplicity
  _atom_site_fract_x
  _atom_site_fract_y
  _atom_site_fract_z
  _atom_site_occupancy
  Zr  Zr1       1.0  0.24999999670977538  0.2499999824150629  0.25000002612876  1.0000
  Zr  Zr2       1.0  0.7500002850319697  0.7500000016097721  0.7500001256951341  1.0000
  Rh  Rh1       1.0  3.3819192180915016e-08  0.9999999864088546  5.8054021186010925e-08  1.0000
  S   S1        1.0  0.2589622855105924  0.2589625008570935  0.7410375289087066  1.0000
  S   S2        1.0  0.7410376799328984  0.741037558889837  0.258962180420574  1.0000
  S   S3        1.0  0.7410375679720574  0.2589623164887393  0.25896249846832065  1.0000
  S   S4        1.0  0.25896224958709896  0.7410376267626569  0.7410375538962451  1.0000
  S   S5        1.0  0.2589624521532283  0.7410375892372173  0.2589624235491248  1.0000
  S   S6        1.0  0.7410374544176125  0.2589624219699068  0.7410376169144748  1.0000
