data_image0
_chemical_formula_structural       Zr2RhO6
_chemical_formula_sum              "Zr2 Rh1 O6"
_cell_length_a       5.103015316392324
_cell_length_b       5.103015369865301
_cell_length_c       5.103015352753153
_cell_angle_alpha    60.000001101818285
_cell_angle_beta     60.000000559606974
_cell_angle_gamma    60.00000099780456

_space_group_name_H-M_alt    "P 1"
_space_group_IT_number       1

loop_
  _space_group_symop_operation_xyz
  'x, y, z'

loop_
  _atom_site_type_symbol
  _atom_site_label
  _atom_site_symmetry_multiplicity
  _atom_site_fract_x
  _atom_site_fract_y
  _atom_site_fract_z
  _atom_site_occupancy
  Zr  Zr1       1.0  0.24999977113111954  0.2500001354679837  0.25000009585669997  1.0000
  Zr  Zr2       1.0  0.749999975004104  0.74999980639358  0.7499998530870192  1.0000
  Rh  Rh1       1.0  1.0376629726380726e-08  9.600165832267354e-09  0.9999999782538482  1.0000
  O   O1        1.0  0.2617730422704488  0.26177320466522264  0.7382268658090032  1.0000
  O   O2        1.0  0.7382270254306279  0.7382267635968002  0.26177320113579017  1.0000
  O   O3        1.0  0.7382269476246924  0.2617730884770707  0.2617731619081445  1.0000
  O   O4        1.0  0.26177317381053206  0.7382269493861553  0.7382268551267285  1.0000
  O   O5        1.0  0.2617731203530194  0.7382268878650412  0.26177305897669234  1.0000
  O   O6        1.0  0.7382269346615465  0.26177315239822546  0.7382269293200925  1.0000
