data_image0
_chemical_formula_structural       Zr2SiO6
_chemical_formula_sum              "Zr2 Si1 O6"
_cell_length_a       4.8759907282527415
_cell_length_b       4.875990780800431
_cell_length_c       4.875990761524441
_cell_angle_alpha    60.000000991935885
_cell_angle_beta     60.000000641716454
_cell_angle_gamma    60.00000206442279

_space_group_name_H-M_alt    "P 1"
_space_group_IT_number       1

loop_
  _space_group_symop_operation_xyz
  'x, y, z'

loop_
  _atom_site_type_symbol
  _atom_site_label
  _atom_site_symmetry_multiplicity
  _atom_site_fract_x
  _atom_site_fract_y
  _atom_site_fract_z
  _atom_site_occupancy
  Zr  Zr1       1.0  0.24999976187321188  0.2500001483317672  0.24999995366736427  1.0000
  Zr  Zr2       1.0  0.7499999800170112  0.7500000029208651  0.7500000916911782  1.0000
  Si  Si1       1.0  1.3252543326802086e-08  0.9999999673467737  0.9999999830390932  1.0000
  O   O1        1.0  0.2495573895046956  0.24955738637726044  0.7504425206667731  1.0000
  O   O2        1.0  0.7504427167706229  0.7504425739795927  0.24955747281182147  1.0000
  O   O3        1.0  0.7504427572518999  0.2495574196694382  0.24955736163692047  1.0000
  O   O4        1.0  0.24955731974388856  0.7504425858995742  0.7504426730961254  1.0000
  O   O5        1.0  0.2495575097981997  0.7504425851633585  0.2495572795411413  1.0000
  O   O6        1.0  0.7504425403601305  0.24955733751669373  0.7504427157153117  1.0000
