data_image0
_chemical_formula_structural       Zr2SnTe6
_chemical_formula_sum              "Zr2 Sn1 Te6"
_cell_length_a       7.256301377810137
_cell_length_b       7.256301412971329
_cell_length_c       7.256301343446053
_cell_angle_alpha    59.99999991514645
_cell_angle_beta     59.999999885725735
_cell_angle_gamma    59.99999975719118

_space_group_name_H-M_alt    "P 1"
_space_group_IT_number       1

loop_
  _space_group_symop_operation_xyz
  'x, y, z'

loop_
  _atom_site_type_symbol
  _atom_site_label
  _atom_site_symmetry_multiplicity
  _atom_site_fract_x
  _atom_site_fract_y
  _atom_site_fract_z
  _atom_site_occupancy
  Zr  Zr1       1.0  0.2500000659101105  0.25000009003910406  0.24999995083536963  1.0000
  Zr  Zr2       1.0  0.7499999666269012  0.7499999274865498  0.7500001242139684  1.0000
  Sn  Sn1       1.0  4.580863928734691e-09  1.0127017543238558e-08  1.4695860138574188e-08  1.0000
  Te  Te1       1.0  0.267913483748249  0.267913521602479  0.7320864789502582  1.0000
  Te  Te2       1.0  0.7320865245661609  0.7320864587907774  0.2679134738060858  1.0000
  Te  Te3       1.0  0.7320864514341372  0.26791352948527974  0.2679134794311644  1.0000
  Te  Te4       1.0  0.26791350780620965  0.7320864931038836  0.7320864836548205  1.0000
  Te  Te5       1.0  0.26791352866803286  0.732086467737569  0.2679134684727551  1.0000
  Te  Te6       1.0  0.7320864650515861  0.267913499152997  0.7320865300289184  1.0000
