data_image0
_chemical_formula_structural       Zr2SO6
_chemical_formula_sum              "Zr2 S1 O6"
_cell_length_a       4.94706789705468
_cell_length_b       4.947067929695318
_cell_length_c       4.947067970857214
_cell_angle_alpha    60.00000003438739
_cell_angle_beta     59.999999682707795
_cell_angle_gamma    59.99999958790474

_space_group_name_H-M_alt    "P 1"
_space_group_IT_number       1

loop_
  _space_group_symop_operation_xyz
  'x, y, z'

loop_
  _atom_site_type_symbol
  _atom_site_label
  _atom_site_symmetry_multiplicity
  _atom_site_fract_x
  _atom_site_fract_y
  _atom_site_fract_z
  _atom_site_occupancy
  Zr  Zr1       1.0  0.24999998913754334  0.24999999204193424  0.250000013273639  1.0000
  Zr  Zr2       1.0  0.750000026707932  0.7500000083098831  0.7500000041882229  1.0000
  S   S1        1.0  0.9999999818448773  5.446536734283691e-08  0.9999999676950824  1.0000
  O   O1        1.0  0.2424976863925096  0.242497691197274  0.7575023038366051  1.0000
  O   O2        1.0  0.7575023537608958  0.7575022992517491  0.2424976579091044  1.0000
  O   O3        1.0  0.7575022889950332  0.24249770000871862  0.24249767066787042  1.0000
  O   O4        1.0  0.24249766479626644  0.757502290440305  0.7575023807510767  1.0000
  O   O5        1.0  0.24249768688596962  0.7575022914512461  0.2424976643920331  1.0000
  O   O6        1.0  0.7575023153796026  0.24249768661928467  0.7575023447222319  1.0000
