data_image0
_chemical_formula_structural       Zr2SiSe6
_chemical_formula_sum              "Zr2 Si1 Se6"
_cell_length_a       6.5214763327304075
_cell_length_b       6.521476401975765
_cell_length_c       6.521476320407967
_cell_angle_alpha    59.99999902225772
_cell_angle_beta     60.00000058575848
_cell_angle_gamma    59.99999999809452

_space_group_name_H-M_alt    "P 1"
_space_group_IT_number       1

loop_
  _space_group_symop_operation_xyz
  'x, y, z'

loop_
  _atom_site_type_symbol
  _atom_site_label
  _atom_site_symmetry_multiplicity
  _atom_site_fract_x
  _atom_site_fract_y
  _atom_site_fract_z
  _atom_site_occupancy
  Zr  Zr1       1.0  0.2500001406315311  0.2499998164529564  0.24999994004951157  1.0000
  Zr  Zr2       1.0  0.7500001326493245  0.7500000090081694  0.7500000667618981  1.0000
  Si  Si1       1.0  0.9999999840644909  0.9999999999999994  3.403547190047976e-08  1.0000
  Se  Se1       1.0  0.2519009233366395  0.25190106210650337  0.748098987162233  1.0000
  Se  Se2       1.0  0.7480989461861957  0.7480990450572966  0.25190088286887424  1.0000
  Se  Se3       1.0  0.7480989882905614  0.25190098320200216  0.2519010365226196  1.0000
  Se  Se4       1.0  0.25190096922901656  0.7480989662082996  0.7480990033256382  1.0000
  Se  Se5       1.0  0.2519009857800801  0.7480991158678969  0.2519009979992889  1.0000
  Se  Se6       1.0  0.7480989242520258  0.25190100256400644  0.7480990531514734  1.0000
