data_image0
_chemical_formula_structural       Zr2SnSe6
_chemical_formula_sum              "Zr2 Sn1 Se6"
_cell_length_a       6.762020252620363
_cell_length_b       6.762020192112877
_cell_length_c       6.762020181200586
_cell_angle_alpha    59.999999425283946
_cell_angle_beta     60.00000126612445
_cell_angle_gamma    60.00000101941321

_space_group_name_H-M_alt    "P 1"
_space_group_IT_number       1

loop_
  _space_group_symop_operation_xyz
  'x, y, z'

loop_
  _atom_site_type_symbol
  _atom_site_label
  _atom_site_symmetry_multiplicity
  _atom_site_fract_x
  _atom_site_fract_y
  _atom_site_fract_z
  _atom_site_occupancy
  Zr  Zr1       1.0  0.25000023574528335  0.24999998636826895  0.2499998450343619  1.0000
  Zr  Zr2       1.0  0.7499996310848376  0.7500000369868857  0.7500000978280088  1.0000
  Sn  Sn1       1.0  1.7369246959248743e-08  1.4489692942764855e-08  0.9999999219589142  1.0000
  Se  Se1       1.0  0.2662864579236961  0.26628627924162207  0.7337135800609911  1.0000
  Se  Se2       1.0  0.7337135905541193  0.7337136807211317  0.26628635099687004  1.0000
  Se  Se3       1.0  0.7337135730767298  0.26628638430002854  0.26628643823657255  1.0000
  Se  Se4       1.0  0.2662865048095343  0.7337136155093767  0.7337136652324581  1.0000
  Se  Se5       1.0  0.26628645194339245  0.7337136023447052  0.26628632369087046  1.0000
  Se  Se6       1.0  0.733713528608159  0.26628639746469895  0.7337137899954685  1.0000
