data_image0
_chemical_formula_structural       Zr2SeS6
_chemical_formula_sum              "Zr2 Se1 S6"
_cell_length_a       6.089048049210881
_cell_length_b       6.089047587001105
_cell_length_c       6.0890472143207415
_cell_angle_alpha    60.00000488941141
_cell_angle_beta     60.00001086168438
_cell_angle_gamma    59.99999876275546

_space_group_name_H-M_alt    "P 1"
_space_group_IT_number       1

loop_
  _space_group_symop_operation_xyz
  'x, y, z'

loop_
  _atom_site_type_symbol
  _atom_site_label
  _atom_site_symmetry_multiplicity
  _atom_site_fract_x
  _atom_site_fract_y
  _atom_site_fract_z
  _atom_site_occupancy
  Zr  Zr1       1.0  0.25000380062777483  0.24999860760366857  0.24999885969979815  1.0000
  Zr  Zr2       1.0  0.7499962465790532  0.7500007768649163  0.7499994921895976  1.0000
  Se  Se1       1.0  0.9999999373514751  0.9999995393917235  0.9999998214938468  1.0000
  S   S1        1.0  0.2737680717379974  0.2737653541311101  0.7262329572053908  1.0000
  S   S2        1.0  0.7262326554290714  0.726234505025466  0.2737670755128931  1.0000
  S   S3        1.0  0.7262323310670981  0.2737661189256596  0.2737671265640701  1.0000
  S   S4        1.0  0.2737672026936006  0.7262340037230477  0.7262337685462033  1.0000
  S   S5        1.0  0.2737669054241684  0.7262337906602842  0.2737660393090202  1.0000
  S   S6        1.0  0.7262328417270079  0.2737673075124963  0.7262349691723193  1.0000
