data_image0
_chemical_formula_structural       Zr2SiTe6
_chemical_formula_sum              "Zr2 Si1 Te6"
_cell_length_a       7.053102284309118
_cell_length_b       7.053102273899702
_cell_length_c       7.053102287443695
_cell_angle_alpha    59.99999957250974
_cell_angle_beta     60.000000303346425
_cell_angle_gamma    60.000000043007674

_space_group_name_H-M_alt    "P 1"
_space_group_IT_number       1

loop_
  _space_group_symop_operation_xyz
  'x, y, z'

loop_
  _atom_site_type_symbol
  _atom_site_label
  _atom_site_symmetry_multiplicity
  _atom_site_fract_x
  _atom_site_fract_y
  _atom_site_fract_z
  _atom_site_occupancy
  Zr  Zr1       1.0  0.24999994580659324  0.25000008197277307  0.25000003228378964  1.0000
  Zr  Zr2       1.0  0.7499998846533177  0.7500000010770838  0.750000144613849  1.0000
  Si  Si1       1.0  0.9999999876802195  0.9999999878447612  3.208693115294019e-08  1.0000
  Te  Te1       1.0  0.2539977892080979  0.25399775324739166  0.746002224793098  1.0000
  Te  Te2       1.0  0.7460022726550459  0.7460021856760658  0.2539977099719101  1.0000
  Te  Te3       1.0  0.746002221524123  0.25399778362765707  0.253997736431348  1.0000
  Te  Te4       1.0  0.2539978192205784  0.7460022039167546  0.7460022285346944  1.0000
  Te  Te5       1.0  0.25399782350018907  0.7460022256391694  0.2539977147372365  1.0000
  Te  Te6       1.0  0.7460022535427622  0.25399777579694394  0.7460021840171712  1.0000
