data_image0
_chemical_formula_structural       Zr2TaTe6
_chemical_formula_sum              "Zr2 Ta1 Te6"
_cell_length_a       7.167735902300317
_cell_length_b       7.167735964660279
_cell_length_c       7.167735930520264
_cell_angle_alpha    59.99999985688682
_cell_angle_beta     60.0000001276359
_cell_angle_gamma    59.99999993897523

_space_group_name_H-M_alt    "P 1"
_space_group_IT_number       1

loop_
  _space_group_symop_operation_xyz
  'x, y, z'

loop_
  _atom_site_type_symbol
  _atom_site_label
  _atom_site_symmetry_multiplicity
  _atom_site_fract_x
  _atom_site_fract_y
  _atom_site_fract_z
  _atom_site_occupancy
  Zr  Zr1       1.0  0.2500000557807  0.24999983587130503  0.2500000603349761  1.0000
  Zr  Zr2       1.0  0.7499999530074343  0.7500001312862731  0.749999960989533  1.0000
  Ta  Ta1       1.0  0.9999999668201552  2.2212988233901344e-08  0.9999999817660365  1.0000
  Te  Te1       1.0  0.2628614836664871  0.2628614288501678  0.7371385435840656  1.0000
  Te  Te2       1.0  0.7371385455756447  0.7371385639377812  0.2628614616739626  1.0000
  Te  Te3       1.0  0.7371385130507185  0.2628614119711965  0.2628614750502456  1.0000
  Te  Te4       1.0  0.26286145562508345  0.7371386030297407  0.7371385159010766  1.0000
  Te  Te5       1.0  0.2628614735200094  0.7371385794780957  0.2628614327775197  1.0000
  Te  Te6       1.0  0.7371385485132365  0.26286142527069284  0.7371385728948128  1.0000
