data_image0
_chemical_formula_structural       Zr2TiTe6
_chemical_formula_sum              "Zr2 Ti1 Te6"
_cell_length_a       7.089043290500576
_cell_length_b       7.089043231239837
_cell_length_c       7.089043300369665
_cell_angle_alpha    60.000000425135234
_cell_angle_beta     59.999999232138904
_cell_angle_gamma    60.00000065555392

_space_group_name_H-M_alt    "P 1"
_space_group_IT_number       1

loop_
  _space_group_symop_operation_xyz
  'x, y, z'

loop_
  _atom_site_type_symbol
  _atom_site_label
  _atom_site_symmetry_multiplicity
  _atom_site_fract_x
  _atom_site_fract_y
  _atom_site_fract_z
  _atom_site_occupancy
  Zr  Zr1       1.0  0.2500000537725206  0.25000003338365506  0.2500000580099749  1.0000
  Zr  Zr2       1.0  0.7500000371494144  0.7499999204744341  0.7499999366190513  1.0000
  Ti  Ti1       1.0  0.9999999885161782  0.9999999758127759  6.438623304548314e-08  1.0000
  Te  Te1       1.0  0.2613240783305497  0.26132410717610677  0.7386758790331415  1.0000
  Te  Te2       1.0  0.7386758868394242  0.7386759209713141  0.2613241286315522  1.0000
  Te  Te3       1.0  0.7386759126627656  0.26132409106333054  0.2613240743520762  1.0000
  Te  Te4       1.0  0.26132409783560945  0.7386759232628194  0.7386759034527761  1.0000
  Te  Te5       1.0  0.26132407015194603  0.7386758799061497  0.261324088149357  1.0000
  Te  Te6       1.0  0.7386758736453339  0.2613241586072235  0.7386758601298389  1.0000
