data_image0
_chemical_formula_structural       Zr2TaS6
_chemical_formula_sum              "Zr2 Ta1 S6"
_cell_length_a       6.356271788645684
_cell_length_b       6.356271651653682
_cell_length_c       6.356271607495841
_cell_angle_alpha    60.00000031863697
_cell_angle_beta     60.00000090301173
_cell_angle_gamma    60.00000053834092

_space_group_name_H-M_alt    "P 1"
_space_group_IT_number       1

loop_
  _space_group_symop_operation_xyz
  'x, y, z'

loop_
  _atom_site_type_symbol
  _atom_site_label
  _atom_site_symmetry_multiplicity
  _atom_site_fract_x
  _atom_site_fract_y
  _atom_site_fract_z
  _atom_site_occupancy
  Zr  Zr1       1.0  0.24999992667412485  0.24999999446377438  0.25000007039914035  1.0000
  Zr  Zr2       1.0  0.7500000003668975  0.7499999872449825  0.7500000330218584  1.0000
  Ta  Ta1       1.0  3.708510881696849e-08  0.9999999922926842  7.970606279031405e-08  1.0000
  S   S1        1.0  0.2638715970325564  0.2638716207020173  0.7361283994908174  1.0000
  S   S2        1.0  0.7361283293283759  0.7361284284457553  0.2638716139137429  1.0000
  S   S3        1.0  0.7361284217441889  0.2638716447557269  0.263871561537592  1.0000
  S   S4        1.0  0.2638716019812922  0.736128379343269  0.7361283732313506  1.0000
  S   S5        1.0  0.2638716408513296  0.7361283286992469  0.26387157271314804  1.0000
  S   S6        1.0  0.7361284446774456  0.26387162988756263  0.7361282663687826  1.0000
