data_image0
_chemical_formula_structural       Zr2TeS6
_chemical_formula_sum              "Zr2 Te1 S6"
_cell_length_a       6.413731585837332
_cell_length_b       6.413731597187526
_cell_length_c       6.413730834389169
_cell_angle_alpha    59.999998675407454
_cell_angle_beta     59.99999856395888
_cell_angle_gamma    60.00000136151987

_space_group_name_H-M_alt    "P 1"
_space_group_IT_number       1

loop_
  _space_group_symop_operation_xyz
  'x, y, z'

loop_
  _atom_site_type_symbol
  _atom_site_label
  _atom_site_symmetry_multiplicity
  _atom_site_fract_x
  _atom_site_fract_y
  _atom_site_fract_z
  _atom_site_occupancy
  Zr  Zr1       1.0  0.250000545722884  0.24999975663334043  0.24999939584244135  1.0000
  Zr  Zr2       1.0  0.7499994915479677  0.7500011374561899  0.7500004548060623  1.0000
  Te  Te1       1.0  6.1280622406031384e-09  2.4824364670058156e-08  7.495477079871909e-08  1.0000
  S   S1        1.0  0.26272512325130676  0.2627240723813438  0.7372753352955383  1.0000
  S   S2        1.0  0.7372754314184528  0.7372754315436199  0.2627241129104811  1.0000
  S   S3        1.0  0.7372753541676562  0.26272443941313384  0.2627245454289322  1.0000
  S   S4        1.0  0.2627245807735488  0.7372754005955471  0.7372755404107828  1.0000
  S   S5        1.0  0.26272441005397745  0.7372759349440655  0.2627245661494716  1.0000
  S   S6        1.0  0.7372750184971145  0.2627238363201935  0.7372759351082373  1.0000
