data_image0
_chemical_formula_structural       Zr2TaO6
_chemical_formula_sum              "Zr2 Ta1 O6"
_cell_length_a       5.072907451838747
_cell_length_b       5.072907540511355
_cell_length_c       5.072907697296807
_cell_angle_alpha    59.99999976006445
_cell_angle_beta     59.99999988162371
_cell_angle_gamma    59.99999997730741

_space_group_name_H-M_alt    "P 1"
_space_group_IT_number       1

loop_
  _space_group_symop_operation_xyz
  'x, y, z'

loop_
  _atom_site_type_symbol
  _atom_site_label
  _atom_site_symmetry_multiplicity
  _atom_site_fract_x
  _atom_site_fract_y
  _atom_site_fract_z
  _atom_site_occupancy
  Zr  Zr1       1.0  0.24999984015572863  0.2500001594093439  0.25000007769916627  1.0000
  Zr  Zr2       1.0  0.750000030622624  0.7499999857137243  0.7500002104781439  1.0000
  Ta  Ta1       1.0  2.4785854444356555e-08  0.9999999734428558  0.9999999496329877  1.0000
  O   O1        1.0  0.2673730755798573  0.2673731444642056  0.7326267433002601  1.0000
  O   O2        1.0  0.7326270260426552  0.7326267519874216  0.2673731674245055  1.0000
  O   O3        1.0  0.7326270057354454  0.2673731017531601  0.2673729760719651  1.0000
  O   O4        1.0  0.26737294425272884  0.7326269081699008  0.7326269458492277  1.0000
  O   O5        1.0  0.2673732300374541  0.732627020120418  0.26737287073669624  1.0000
  O   O6        1.0  0.7326268004465412  0.2673729463454982  0.7326270622339999  1.0000
