data_image0
_chemical_formula_structural       Zr2TiS6
_chemical_formula_sum              "Zr2 Ti1 S6"
_cell_length_a       6.182790925109798
_cell_length_b       6.18279116711516
_cell_length_c       6.182791195125713
_cell_angle_alpha    59.99999989275376
_cell_angle_beta     59.99999873971815
_cell_angle_gamma    60.000000271820234

_space_group_name_H-M_alt    "P 1"
_space_group_IT_number       1

loop_
  _space_group_symop_operation_xyz
  'x, y, z'

loop_
  _atom_site_type_symbol
  _atom_site_label
  _atom_site_symmetry_multiplicity
  _atom_site_fract_x
  _atom_site_fract_y
  _atom_site_fract_z
  _atom_site_occupancy
  Zr  Zr1       1.0  0.24999982390342182  0.2500002614015519  0.24999992097055573  1.0000
  Zr  Zr2       1.0  0.7500002505500338  0.750000128529023  0.7499999358515103  1.0000
  Ti  Ti1       1.0  3.3409732027251015e-08  0.9999999782101753  2.3303111046200386e-08  1.0000
  S   S1        1.0  0.2646427620694797  0.2646429124915934  0.7353571866053302  1.0000
  S   S2        1.0  0.7353571473423085  0.7353571545533988  0.2646426909801981  1.0000
  S   S3        1.0  0.7353571925125013  0.26464267225663074  0.26464302217446495  1.0000
  S   S4        1.0  0.26464282869674305  0.735357081807244  0.7353571743508792  1.0000
  S   S5        1.0  0.2646428258855165  0.7353569531497326  0.264642957789188  1.0000
  S   S6        1.0  0.7353571344275064  0.26464286034093665  0.7353570777316213  1.0000
