data_image0
_chemical_formula_structural       Zr2TiO6
_chemical_formula_sum              "Zr2 Ti1 O6"
_cell_length_a       5.012035724993019
_cell_length_b       5.01203596465207
_cell_length_c       5.0120360305720775
_cell_angle_alpha    60.00000010207267
_cell_angle_beta     59.99999856637767
_cell_angle_gamma    60.00000119411723

_space_group_name_H-M_alt    "P 1"
_space_group_IT_number       1

loop_
  _space_group_symop_operation_xyz
  'x, y, z'

loop_
  _atom_site_type_symbol
  _atom_site_label
  _atom_site_symmetry_multiplicity
  _atom_site_fract_x
  _atom_site_fract_y
  _atom_site_fract_z
  _atom_site_occupancy
  Zr  Zr1       1.0  0.24999977994345962  0.25000035095535  0.25000001143020795  1.0000
  Zr  Zr2       1.0  0.7500001549923546  0.7500001071899581  0.7499995029837341  1.0000
  Ti  Ti1       1.0  2.736676018993936e-08  1.4661644711356528e-08  0.9999998872067288  1.0000
  O   O1        1.0  0.2632258496915397  0.263225870205954  0.7367741820698303  1.0000
  O   O2        1.0  0.7367742798505127  0.7367738866240103  0.26322607452196395  1.0000
  O   O3        1.0  0.7367741071281312  0.2632257185120859  0.2632260093996489  1.0000
  O   O4        1.0  0.2632258640747299  0.7367741262877463  0.7367741905977381  1.0000
  O   O5        1.0  0.26322584026401646  0.736774051139587  0.2632259404395328  1.0000
  O   O6        1.0  0.7367741128793047  0.2632258547504321  0.7367742300617423  1.0000
