data_image0
_chemical_formula_structural       Zr2VS6
_chemical_formula_sum              "Zr2 V1 S6"
_cell_length_a       6.196848632909253
_cell_length_b       6.196848527828863
_cell_length_c       6.196848688041923
_cell_angle_alpha    59.99999764386177
_cell_angle_beta     59.99999800258965
_cell_angle_gamma    59.999998989941474

_space_group_name_H-M_alt    "P 1"
_space_group_IT_number       1

loop_
  _space_group_symop_operation_xyz
  'x, y, z'

loop_
  _atom_site_type_symbol
  _atom_site_label
  _atom_site_symmetry_multiplicity
  _atom_site_fract_x
  _atom_site_fract_y
  _atom_site_fract_z
  _atom_site_occupancy
  Zr  Zr1       1.0  0.2499997799312309  0.25000003263360054  0.25000013542686345  1.0000
  Zr  Zr2       1.0  0.750000178031431  0.7499998192284709  0.7499995165104173  1.0000
  V   V1        1.0  0.9999999898176927  0.9999999802360042  0.9999999762437892  1.0000
  S   S1        1.0  0.26150191571659714  0.26150208024356325  0.7384980444155362  1.0000
  S   S2        1.0  0.738498002772915  0.7384979850696568  0.2615023419179757  1.0000
  S   S3        1.0  0.7384980911934863  0.26150190713944327  0.2615020432864388  1.0000
  S   S4        1.0  0.26150204679882555  0.7384980474954046  0.7384979207059128  1.0000
  S   S5        1.0  0.26150193463184745  0.7384979892967214  0.26150208928617397  1.0000
  S   S6        1.0  0.738498063717615  0.2615021550724866  0.738497936801488  1.0000
