data_image0
_chemical_formula_structural       Zr2VO6
_chemical_formula_sum              "Zr2 V1 O6"
_cell_length_a       5.031789407575457
_cell_length_b       5.031789424148111
_cell_length_c       5.031789205570378
_cell_angle_alpha    60.00000069006282
_cell_angle_beta     60.00000035649711
_cell_angle_gamma    59.999999717262575

_space_group_name_H-M_alt    "P 1"
_space_group_IT_number       1

loop_
  _space_group_symop_operation_xyz
  'x, y, z'

loop_
  _atom_site_type_symbol
  _atom_site_label
  _atom_site_symmetry_multiplicity
  _atom_site_fract_x
  _atom_site_fract_y
  _atom_site_fract_z
  _atom_site_occupancy
  Zr  Zr1       1.0  0.24999988240416737  0.25000019501405096  0.24999970310796973  1.0000
  Zr  Zr2       1.0  0.7500000382017566  0.7499997769493152  0.7500003413684979  1.0000
  V   V1        1.0  0.9999999890588758  1.2170072585797485e-08  4.906964211983638e-08  1.0000
  O   O1        1.0  0.2562518828533976  0.2562520806267202  0.7437479840145136  1.0000
  O   O2        1.0  0.7437480985073567  0.743747874298544  0.2562519730205562  1.0000
  O   O3        1.0  0.7437481252471044  0.256252031450747  0.2562519246228399  1.0000
  O   O4        1.0  0.25625193620139247  0.7437478553221087  0.7437481158759718  1.0000
  O   O5        1.0  0.25625205666890616  0.7437481278357212  0.25625192744590636  1.0000
  O   O6        1.0  0.7437479499545526  0.25625202667873515  0.7437480026198938  1.0000
