data_image0
_chemical_formula_structural       Zr2VSe6
_chemical_formula_sum              "Zr2 V1 Se6"
_cell_length_a       6.518095592208074
_cell_length_b       6.518095502388441
_cell_length_c       6.518095622636125
_cell_angle_alpha    59.99999976048558
_cell_angle_beta     59.99999950387228
_cell_angle_gamma    59.99999972706413

_space_group_name_H-M_alt    "P 1"
_space_group_IT_number       1

loop_
  _space_group_symop_operation_xyz
  'x, y, z'

loop_
  _atom_site_type_symbol
  _atom_site_label
  _atom_site_symmetry_multiplicity
  _atom_site_fract_x
  _atom_site_fract_y
  _atom_site_fract_z
  _atom_site_occupancy
  Zr  Zr1       1.0  0.24999985537965033  0.2500003698439776  0.24999990258275526  1.0000
  Zr  Zr2       1.0  0.7500000265256787  0.7499998506073505  0.7500001745215676  1.0000
  V   V1        1.0  4.192727760892571e-08  0.9999999379932667  0.9999999885610613  1.0000
  Se  Se1       1.0  0.25728372012899936  0.25728369663993406  0.7427162743914848  1.0000
  Se  Se2       1.0  0.7427163505657591  0.7427162231726873  0.25728371595776456  1.0000
  Se  Se3       1.0  0.7427162690322727  0.2572838521290814  0.25728358604996227  1.0000
  Se  Se4       1.0  0.25728363807061905  0.7427162236398684  0.7427163897067717  1.0000
  Se  Se5       1.0  0.25728377124234997  0.742716153329133  0.2572836639457875  1.0000
  Se  Se6       1.0  0.7427163304465567  0.25728368944481955  0.7427162972632467  1.0000
