data_image0
_chemical_formula_structural       Zr2WO6
_chemical_formula_sum              "Zr2 W1 O6"
_cell_length_a       5.2528385871474
_cell_length_b       5.252838548791777
_cell_length_c       5.252838551133449
_cell_angle_alpha    60.00000026146603
_cell_angle_beta     59.999999863924444
_cell_angle_gamma    60.00000015606132

_space_group_name_H-M_alt    "P 1"
_space_group_IT_number       1

loop_
  _space_group_symop_operation_xyz
  'x, y, z'

loop_
  _atom_site_type_symbol
  _atom_site_label
  _atom_site_symmetry_multiplicity
  _atom_site_fract_x
  _atom_site_fract_y
  _atom_site_fract_z
  _atom_site_occupancy
  Zr  Zr1       1.0  0.2500001212132518  0.25000020980229787  0.250000023641995  1.0000
  Zr  Zr2       1.0  0.7500000552807421  0.7499996617983951  0.7500000026249447  1.0000
  W   W1        1.0  2.664558401402437e-08  0.9999999860104796  0.9999999727309095  1.0000
  O   O1        1.0  0.25809763839610533  0.2580975959603883  0.7419024014742625  1.0000
  O   O2        1.0  0.7419022896927251  0.7419025064673909  0.25809765261904305  1.0000
  O   O3        1.0  0.7419022103341821  0.2580978429451116  0.2580973798156459  1.0000
  O   O4        1.0  0.25809767834253416  0.7419022128509322  0.7419025935569652  1.0000
  O   O5        1.0  0.2580974432256768  0.7419023365783193  0.2580977416267311  1.0000
  O   O6        1.0  0.7419025574737438  0.2580976469385363  0.7419022918308907  1.0000
