data_image0
_chemical_formula_structural       Zr2WS6
_chemical_formula_sum              "Zr2 W1 S6"
_cell_length_a       6.357072382723283
_cell_length_b       6.357072170429271
_cell_length_c       6.357072118005963
_cell_angle_alpha    59.99999896924758
_cell_angle_beta     60.00000020592999
_cell_angle_gamma    60.00000072471722

_space_group_name_H-M_alt    "P 1"
_space_group_IT_number       1

loop_
  _space_group_symop_operation_xyz
  'x, y, z'

loop_
  _atom_site_type_symbol
  _atom_site_label
  _atom_site_symmetry_multiplicity
  _atom_site_fract_x
  _atom_site_fract_y
  _atom_site_fract_z
  _atom_site_occupancy
  Zr  Zr1       1.0  0.24999981771300953  0.2500005699477185  0.24999956569239826  1.0000
  Zr  Zr2       1.0  0.7500003415783157  0.7499996657349891  0.7499999182895923  1.0000
  W   W1        1.0  0.9999999907354277  0.999999946055581  0.9999999812668575  1.0000
  S   S1        1.0  0.2609413486969956  0.26094154901180966  0.7390585638817789  1.0000
  S   S2        1.0  0.7390586929375422  0.739058347591684  0.2609415558884805  1.0000
  S   S3        1.0  0.7390585289166748  0.260941399181975  0.26094148230585296  1.0000
  S   S4        1.0  0.2609414131084392  0.7390585455861759  0.739058749704607  1.0000
  S   S5        1.0  0.26094137520013266  0.7390583983344906  0.26094161416774264  1.0000
  S   S6        1.0  0.7390585112499636  0.2609415714792834  0.7390585402973933  1.0000
