data_image0
_chemical_formula_structural       Zr2WTe6
_chemical_formula_sum              "Zr2 W1 Te6"
_cell_length_a       7.104239377627278
_cell_length_b       7.104239373299779
_cell_length_c       7.1042394843979055
_cell_angle_alpha    59.9999998072932
_cell_angle_beta     60.00000031460572
_cell_angle_gamma    60.00000066259578

_space_group_name_H-M_alt    "P 1"
_space_group_IT_number       1

loop_
  _space_group_symop_operation_xyz
  'x, y, z'

loop_
  _atom_site_type_symbol
  _atom_site_label
  _atom_site_symmetry_multiplicity
  _atom_site_fract_x
  _atom_site_fract_y
  _atom_site_fract_z
  _atom_site_occupancy
  Zr  Zr1       1.0  0.24999998594122827  0.24999996963834237  0.25000006346080034  1.0000
  Zr  Zr2       1.0  0.749999980837892  0.7500001226864895  0.7500000016090567  1.0000
  W   W1        1.0  2.0949513945711894e-08  0.9999999810364028  5.531144996154103e-08  1.0000
  Te  Te1       1.0  0.261534491015753  0.26153444890554084  0.7384655457424877  1.0000
  Te  Te2       1.0  0.7384655758320192  0.7384655382575239  0.2615343951890087  1.0000
  Te  Te3       1.0  0.7384655202455238  0.2615344250504294  0.26153450526831445  1.0000
  Te  Te4       1.0  0.26153450417931495  0.7384655138416597  0.7384654753796952  1.0000
  Te  Te5       1.0  0.26153442999160625  0.7384655394090721  0.26153446471542763  1.0000
  Te  Te6       1.0  0.7384654952519354  0.26153445809777187  0.7384654925799365  1.0000
