data_image0
_chemical_formula_structural       Zr2WSe6
_chemical_formula_sum              "Zr2 W1 Se6"
_cell_length_a       6.669828375852125
_cell_length_b       6.66982843390612
_cell_length_c       6.669828408100232
_cell_angle_alpha    59.99999980353885
_cell_angle_beta     59.99999973451394
_cell_angle_gamma    60.00000009460526

_space_group_name_H-M_alt    "P 1"
_space_group_IT_number       1

loop_
  _space_group_symop_operation_xyz
  'x, y, z'

loop_
  _atom_site_type_symbol
  _atom_site_label
  _atom_site_symmetry_multiplicity
  _atom_site_fract_x
  _atom_site_fract_y
  _atom_site_fract_z
  _atom_site_occupancy
  Zr  Zr1       1.0  0.2499997812677659  0.25000010011399376  0.2500002408027174  1.0000
  Zr  Zr2       1.0  0.7500002750401852  0.7499997035618918  0.7499997290715449  1.0000
  W   W1        1.0  0.9999999843139155  5.508739270056629e-09  1.5583695258249736e-08  1.0000
  Se  Se1       1.0  0.258410178010824  0.2584104542306316  0.7415896983172359  1.0000
  Se  Se2       1.0  0.7415897380103721  0.741589624882219  0.2584104798510868  1.0000
  Se  Se3       1.0  0.7415896079162222  0.2584103380131399  0.25841033121720347  1.0000
  Se  Se4       1.0  0.2584103388140978  0.7415896437786502  0.7415896658587686  1.0000
  Se  Se5       1.0  0.25841028950330014  0.7415896582168088  0.2584103640061339  1.0000
  Se  Se6       1.0  0.7415897984856888  0.2584104814921753  0.7415894759854615  1.0000
